# coding=utf-8
# --------------------------------------------------------------------
# Copyright (C) 1991 - 2025 - EDF R&D - www.code-aster.org
# This file is part of code_aster.
#
# code_aster is free software: you can redistribute it and/or modify
# it under the terms of the GNU General Public License as published by
# the Free Software Foundation, either version 3 of the License, or
# (at your option) any later version.
#
# code_aster is distributed in the hope that it will be useful,
# but WITHOUT ANY WARRANTY; without even the implied warranty of
# MERCHANTABILITY or FITNESS FOR A PARTICULAR PURPOSE.  See the
# GNU General Public License for more details.
#
# You should have received a copy of the GNU General Public License
# along with code_aster.  If not, see <http://www.gnu.org/licenses/>.
# --------------------------------------------------------------------

# person_in_charge: jeremy.dalphin at edf.fr

from math import sqrt, exp, pow, log

DEBUT(CODE="OUI")

#############
# MATERIAUX #
#############

temp_C = -20.0  # °C
young_Pa = 2.6e6 * (78821.0 - 23.721 * temp_C)  # Pa
poisson = 0.3  # no unit
grainSize_m = 5.0e-6  # m
initDisloc_m = 1.4e14  # m^-2
clusterDensity_m = 1.6e23  # m^-3
clusterSize_m = 3.0e-9  # m

TEMP_C = DEFI_CONSTANTE(VALE=temp_C)  # °C
YOUNG_MPa = DEFI_CONSTANTE(VALE=young_Pa * 1.0e-6)  # 1.0 Pa = 1.0e-6 MPa
POISSON = DEFI_CONSTANTE(VALE=poisson)  # no unit
GRAIN_SIZE_mm = DEFI_CONSTANTE(VALE=grainSize_m * 1.0e3)  # 1.0 m = 1.0e3 mm
INIT_DISLOC_mm = DEFI_CONSTANTE(VALE=initDisloc_m * 1.0e-6)  # 1.0 m^-2 = 1.0e-6 mm^-2
CLUSTER_DENSITY_mm = DEFI_CONSTANTE(VALE=clusterDensity_m * 1.0e-9)  # 1 m^-3 = 1.0e-9 mm^-3
CLUSTER_SIZE_mm = DEFI_CONSTANTE(VALE=clusterSize_m * 1.0e3)  # 1.0 m = 1.0e3 mm

MATER1_Pa_m = DEFI_MATERIAU(
    ELAS=_F(E=young_Pa, NU=poisson, ALPHA=0.0),
    VISC_ISOT_PLAS=_F(
        YoungModulus=young_Pa,
        PoissonRatio=poisson,
        TAILLE_GRAIN=grainSize_m,
        D_DISLOC=initDisloc_m,
        C_AMAS=clusterDensity_m,
        TAILLE_AMAS=clusterSize_m,
    ),
)

MATER2_MPa_mm = DEFI_MATERIAU(
    ELAS_FO=_F(E=YOUNG_MPa, NU=POISSON, ALPHA=DEFI_CONSTANTE(VALE=0.0), TEMP_DEF_ALPHA=temp_C),
    VISC_ISOT_PLAS_FO=_F(
        YoungModulus=YOUNG_MPa,
        PoissonRatio=POISSON,
        TAILLE_GRAIN=GRAIN_SIZE_mm,
        D_DISLOC=INIT_DISLOC_mm,
        C_AMAS=CLUSTER_DENSITY_mm,
        TAILLE_AMAS=CLUSTER_SIZE_mm,
        UNITE_LONGUEUR="MM",
        UNITE_CONTRAINTE="MPa",
    ),
)

#############
# REFERENCE #
#############

mu_ref = 0.5 * max(0.0, young_Pa) / max(0.01, 1.0 + poisson)
sigHP_ref = mu_ref * sqrt(max(0.0, 3.3090e-11 / max(1.0e-18, grainSize_m)))
VD_ref = 2.5e7 * min(max(0.0, 1.0e-2 * max(-273.15, temp_C) - 2.0), 1.0)
VS0_ref = max(0.0, 8.0e7 - 2.0e5 * (150.0 + max(-273.15, temp_C)))

L_ref = 1.0 / (2.222222222e-4 + 6.7925e-6 * sqrt(max(0.0, 1.0e-22 * clusterDensity_m)))
f_ref = min(1.178 + 0.019 * max(0.0, temp_C + 273.15), 6.8)
H_ref = 0.25 * mu_ref * mu_ref / (L_ref * f_ref)
Hini_ref = mu_ref * mu_ref * 1.5376e-20 * max(0.0, initDisloc_m)

sigI2_ref = 0.0
if clusterDensity_m > 1.0e20:
    if clusterSize_m > 0.0:
        sigI2_ref = (
            mu_ref
            * mu_ref
            * 3.35e-8
            * pow(1.0e9 * clusterSize_m, 2.3)
            * pow(1.0e-22 * clusterDensity_m, 1.142857)
        )

sigC_0_ref = max(0.0, sigHP_ref + VD_ref + VS0_ref + sqrt(max(0.0, sigI2_ref + 4.0 * Hini_ref)))
friction_coefficient_ref = min(max(0.0, 1.0 - max(0.0, temp_C + 273.15) * 19.3289 / 9744.78), 1.0)
sigE_ref = 900.0e6 * friction_coefficient_ref * friction_coefficient_ref
sigD_ref = sigHP_ref + VD_ref + sigE_ref + 5.0e6 * pow(1.0e6, 0.1)

nInst = 1000
eto_ref = [float(i) / float(nInst) for i in range(nInst + 1)]
sig_ref = [max(0.0, young_Pa) * eto_ref[i] for i in range(len(eto_ref))]
for i in range(len(eto_ref)):
    if sig_ref[i] > sigC_0_ref:
        p_tmp = max(0.0, eto_ref[i] - sigC_0_ref / max(1.0e-30, young_Pa))
        VS_tmp = VS0_ref * exp(-200.0 * p_tmp)
        sig_auto2_tmp = max(
            0.0,
            Hini_ref * exp(-max(0.0, 3.0 * f_ref * p_tmp))
            + H_ref * (4.0 - exp(-max(0.0, 3.0 * f_ref * p_tmp)) - 3.0 * exp(-p_tmp)),
        )
        sigLT_tmp = max(0.0, sqrt(3.0 * sig_auto2_tmp) - sigE_ref)
        R_tmp = sqrt(max(0.0, sigI2_ref + sig_auto2_tmp + sigLT_tmp * sigLT_tmp))
        sig_ref[i] = max(0.0, sigD_ref + VS_tmp + R_tmp)
        eto_ref[i] = sig_ref[i] / max(1.0e-30, young_Pa) + p_tmp

########################################################
# TEST DE LA LOI DE COMPORTEMENT SUR UN POINT MATERIEL #
########################################################

L_INST = DEFI_LIST_REEL(DEBUT=0.0, INTERVALLE=_F(JUSQU_A=1.0, NOMBRE=nInst))

EPXX_REF = DEFI_LIST_REEL(VALE=[eto_ref[i] for i in range(len(eto_ref))])

DEPL_XX = DEFI_FONCTION(NOM_PARA="INST", VALE_PARA=L_INST, VALE_FONC=EPXX_REF)

TEST_TAB1 = SIMU_POINT_MAT(
    MATER=MATER1_Pa_m,
    COMPORTEMENT=_F(RELATION="VISC_ISOT_PLAS"),
    AFFE_VARC=_F(NOM_VARC="TEMP", VALE_FONC=TEMP_C, VALE_REF=temp_C),
    INCREMENT=_F(LIST_INST=L_INST),
    EPSI_IMPOSE=_F(EPXX=DEPL_XX),
    ARCHIVAGE=_F(LIST_INST=L_INST),
)

TEST_TAB2 = SIMU_POINT_MAT(
    MATER=MATER2_MPa_mm,
    COMPORTEMENT=_F(RELATION="VISC_ISOT_PLAS"),
    AFFE_VARC=_F(NOM_VARC="TEMP", VALE_FONC=TEMP_C, VALE_REF=temp_C),
    INCREMENT=_F(LIST_INST=L_INST),
    EPSI_IMPOSE=_F(EPXX=DEPL_XX),
    ARCHIVAGE=_F(LIST_INST=L_INST),
)

#################################
# COMPARAISONS DES EPXX et SIXX #
#################################

sig_regre = (
    0.0000000000000000e00,
    2.0616809200000000e08,
    4.1233618400000000e08,
    7.4203066589643466e08,
    7.6455305762408650e08,
    7.6230166709676254e08,
    7.5821128343952465e08,
    7.5501722872705412e08,
    7.5285126684447026e08,
    7.5155510258920646e08,
    7.5097295486723375e08,
    7.5097402098844564e08,
    7.5145047053542173e08,
    7.5231357812833571e08,
    7.5349032394597948e08,
    7.5492058744958818e08,
    7.5655484701647925e08,
    7.5835229484018004e08,
    7.6027929137778163e08,
    7.6230809748733425e08,
# ... 981 like lines cut
)

eto_regre = (
    0.0000000000000000e00,
    1.0000000000000000e-03,
    2.0000000000000000e-03,
    3.8560256295405654e-03,
    4.8191943318174162e-03,
    5.7905999443229345e-03,
    6.7687664327612885e-03,
    7.7530532583933781e-03,
    8.7425236682784034e-03,
    9.7362342394037328e-03,
    1.0733410328791970e-02,
    1.1733415476262849e-02,
    1.2735726451992394e-02,
    1.3739912880407821e-02,
    1.4745620583288087e-02,
    1.5752557951111492e-02,
    1.6760484783637630e-02,
    1.7769203146233117e-02,
    1.8778549873290355e-02,
    1.9788390418571424e-02,
# ... 981 like lines cut
)

prec = [1.0e-7] * len(sig_ref)
prec[3] = 4.41e-2
prec[4] = 5.35e-3
prec[5] = 6.06e-4
prec[6] = 6.72e-5
prec[7] = 7.20e-6
prec[8] = 7.06e-7

for i in range(len(sig_ref)):
    TEST_TABLE(
        TABLE=TEST_TAB1,
        FILTRE=_F(NOM_PARA="INST", VALE=float(i) / float(nInst)),
        NOM_PARA="SIXX",
        VALE_CALC=sig_regre[i],
        TOLE_MACHINE=1.0e-10,
        CRITERE="RELATIF",
        REFERENCE="ANALYTIQUE",
        VALE_REFE=sig_ref[i],
        PRECISION=prec[i],
    )

    TEST_TABLE(
        TABLE=TEST_TAB2,
        FILTRE=_F(NOM_PARA="INST", VALE=float(i) / float(nInst)),
        NOM_PARA="SIXX",
        VALE_CALC=sig_regre[i] * 1.0e-6,
        TOLE_MACHINE=1.0e-10,
        CRITERE="RELATIF",
        REFERENCE="ANALYTIQUE",
        VALE_REFE=sig_ref[i] * 1.0e-6,
        PRECISION=prec[i],
    )

    TEST_TABLE(
        TABLE=TEST_TAB1,
        FILTRE=_F(NOM_PARA="INST", VALE=float(i) / float(nInst)),
        NOM_PARA="EPXX",
        VALE_CALC=eto_regre[i],
        TOLE_MACHINE=1.0e-10,
        CRITERE="RELATIF",
        REFERENCE="ANALYTIQUE",
        VALE_REFE=eto_ref[i],
        PRECISION=1.0e-10,
    )

    TEST_TABLE(
        TABLE=TEST_TAB2,
        FILTRE=_F(NOM_PARA="INST", VALE=float(i) / float(nInst)),
        NOM_PARA="EPXX",
        VALE_CALC=eto_regre[i],
        TOLE_MACHINE=1.0e-10,
        CRITERE="RELATIF",
        REFERENCE="ANALYTIQUE",
        VALE_REFE=eto_ref[i],
        PRECISION=1.0e-10,
    )

FIN()
