# coding=utf-8
# --------------------------------------------------------------------
# Copyright (C) 1991 - 2026 - EDF - www.code-aster.org
# This file is part of code_aster.
#
# code_aster is free software: you can redistribute it and/or modify
# it under the terms of the GNU General Public License as published by
# the Free Software Foundation, either version 3 of the License, or
# (at your option) any later version.
#
# code_aster is distributed in the hope that it will be useful,
# but WITHOUT ANY WARRANTY; without even the implied warranty of
# MERCHANTABILITY or FITNESS FOR A PARTICULAR PURPOSE.  See the
# GNU General Public License for more details.
#
# You should have received a copy of the GNU General Public License
# along with code_aster.  If not, see <http://www.gnu.org/licenses/>.
# --------------------------------------------------------------------

from code_aster.Commands import *
from code_aster import CA

test = CA.TestCase()

# --------------------------------------------------------------------
#   HF COMPUTATION
# --------------------------------------------------------------------

DEBUT(CODE="OUI", ERREUR=_F(ALARME="EXCEPTION"), DEBUG=_F(SDVERI="OUI"))

mesh = LIRE_MAILLAGE(FORMAT="MED")

mesh = MODI_MAILLAGE(reuse=mesh, MAILLAGE=mesh, ORIE_PEAU=_F(GROUP_MA_PEAU="S_e"))

# Define the material
steel = DEFI_MATERIAU(ELAS=_F(E=210000.0, NU=0.3), ECRO_LINE=_F(D_SIGM_EPSI=100.0, SY=100.0))

chmat = AFFE_MATERIAU(MAILLAGE=mesh, AFFE=_F(TOUT="OUI", MATER=steel))
# Mechanic model
model = AFFE_MODELE(MAILLAGE=mesh, AFFE=_F(TOUT="OUI", PHENOMENE="MECANIQUE", MODELISATION="3D"))

# Boundary condition
chg_b = AFFE_CHAR_CINE(MODELE=model, MECA_IMPO=_F(GROUP_MA="S_inf", DX=0, DY=0.0, DZ=0))

chg_p = AFFE_CHAR_MECA(MODELE=model, PRES_REP=_F(GROUP_MA="S_e", PRES=1000))

# Time discretization
list_t = DEFI_LIST_REEL(DEBUT=0.0, INTERVALLE=_F(JUSQU_A=10.0, PAS=1.0))

list_i = DEFI_LIST_INST(METHODE="MANUEL", DEFI_LIST=_F(LIST_INST=list_t))

rampe = DEFI_FONCTION(NOM_PARA="INST", VALE=(0.0, 0.0, 10.0, 1.0))

# Complete computation to create base
stnl = STAT_NON_LINE(
    MODELE=model,
    CHAM_MATER=chmat,
    EXCIT=(_F(CHARGE=chg_b), _F(CHARGE=chg_p, FONC_MULT=rampe)),
    INCREMENT=_F(LIST_INST=list_i),
    COMPORTEMENT=_F(RELATION="VMIS_ISOT_LINE"),
)

stnl = CALC_CHAMP(reuse=stnl, RESULTAT=stnl, CONTRAINTE="SIEF_NOEU")

# --------------------------------------------------------------------
#   TEST THE EXTRACTION PROCEDURE FROM THE RESULT
# --------------------------------------------------------------------
from code_aster.MacroCommands.ROM.calc_pod_mod import *


def test_singular_values(singval_num, singval_ref, msg_end):
    test_array_floats(singval_num, singval_ref, "singval = ", msg_end)


def test_array_floats(arr_num, arr_ref, msg_begin, msg_end):
    for i in range(len(arr_ref)):
        test.assertAlmostEqual(arr_num[i], arr_ref[i], msg=msg_begin + str(i) + " " + msg_end)


nDOF = 192
n_cut = 3
indices_A = [1, 2, 3]
indices_B = [3, 4, 5, 6, 7, 8, 9, 10]

arrPetsc_depl = extractSnapshotsFromResult(stnl, "DEPL", indexSteps=None, format="petsc")

arrPetsc_depl_A = extractSnapshotsFromResult(stnl, "DEPL", indexSteps=indices_A, format="petsc")
arrPetsc_depl_B = extractSnapshotsFromResult(stnl, "DEPL", indexSteps=indices_B, format="petsc")

# - Compute the ROB using the snapshot method
POD_An_A = PODAnalysis(arrPetsc_depl_A, method="snapshot", criterion="energy", tolerance=1e-5)
Phi_A, singval_A = POD_An_A.computePODBasis(option=2)

test.assertEqual(Phi_A.getSize()[0], nDOF)
test.assertEqual(Phi_A.getSize()[1], 2)

POD_An_B = PODAnalysis(arrPetsc_depl_B, method="snapshot", criterion="energy", tolerance=1e-5)
Phi_B, singval_B = POD_An_B.computePODBasisIncremental(Phi_A, singval_A, method="HPOD", option=2)

singval_B_ref = [6.60693745e-01, 2.38644383e-03, 4.94068815e-02, 3.19800428e-03, 2.54641633e-04]

test_singular_values(singval_B, singval_B_ref, " using incr-POD (HPOD)")
test.assertEqual(Phi_B.getSize()[0], nDOF, msg="Test incremental POD with HPOD - number of DOFs")
test.assertEqual(Phi_B.getSize()[1], 5, msg="Test incremental POD with HPOD - number of modes")


Phi_B2, singval_B2 = POD_An_B.computePODBasisIncremental(
    arrPetsc_depl_A, singval_A, method="HAPOD", option=2
)
singval_B2_ref = [5.10101052, 0.01725583]

test_singular_values(singval_B2, singval_B2_ref, " using incr-POD (HAPOD)")
test.assertEqual(Phi_B2.getSize()[0], nDOF, msg="Test incremental POD with HAPOD - number of DOFs")
test.assertEqual(Phi_B2.getSize()[1], 2, msg="Test incremental POD with HAPOD - number of modes")

# - Test on the absolute projection errors
abs_errors, _ = computeProjectionErrors(Phi_B, arrPetsc_depl, format="petsc")
abs_errors_ref = [
    0.00000000e00,
    7.22649897e-05,
    4.77866595e-05,
    2.26849455e-05,
    3.47943210e-06,
    1.14354021e-05,
    4.84642233e-06,
    4.59718820e-06,
    8.98635676e-06,
    5.12265258e-06,
    8.23461056e-06,
]
test_array_floats(abs_errors_ref, abs_errors, "Absolute errors - ", "- case SVD")

abs_errors, _ = computeProjectionErrors(Phi_B2, arrPetsc_depl, format="petsc")
abs_errors_ref = [
    0.0,
    0.00181504,
    0.00211492,
    0.00118044,
    0.00022066,
    0.00053202,
    0.00088261,
    0.00087142,
    0.00052549,
    0.00012264,
    0.00102071,
]
test_array_floats(abs_errors_ref, abs_errors, "Absolute errors - ", "- case SVD")
FIN()
