# coding=utf-8
# --------------------------------------------------------------------
# Copyright (C) 1991 - 2026 - EDF - www.code-aster.org
# This file is part of code_aster.
#
# code_aster is free software: you can redistribute it and/or modify
# it under the terms of the GNU General Public License as published by
# the Free Software Foundation, either version 3 of the License, or
# (at your option) any later version.
#
# code_aster is distributed in the hope that it will be useful,
# but WITHOUT ANY WARRANTY; without even the implied warranty of
# MERCHANTABILITY or FITNESS FOR A PARTICULAR PURPOSE.  See the
# GNU General Public License for more details.
#
# You should have received a copy of the GNU General Public License
# along with code_aster.  If not, see <http://www.gnu.org/licenses/>.
# --------------------------------------------------------------------

from code_aster.Commands import *
from code_aster import CA

test = CA.TestCase()

# --------------------------------------------------------------------
#   HF COMPUTATION
# --------------------------------------------------------------------

DEBUT(CODE="OUI", ERREUR=_F(ALARME="ALARME"), DEBUG=_F(SDVERI="OUI"))

mesh = LIRE_MAILLAGE(UNITE=20, FORMAT="MED", PARTITIONNEUR="PTSCOTCH")

mesh = MODI_MAILLAGE(reuse=mesh, MAILLAGE=mesh, ORIE_PEAU=_F(GROUP_MA_PEAU="S_e"))

# Define the material
steel = DEFI_MATERIAU(ELAS=_F(E=210000.0, NU=0.3), ECRO_LINE=_F(D_SIGM_EPSI=100.0, SY=100.0))

chmat = AFFE_MATERIAU(MAILLAGE=mesh, AFFE=_F(TOUT="OUI", MATER=steel))
# Mechanic model
model = AFFE_MODELE(MAILLAGE=mesh, AFFE=_F(TOUT="OUI", PHENOMENE="MECANIQUE", MODELISATION="3D"))

# Boundary condition
chg_b = AFFE_CHAR_CINE(MODELE=model, MECA_IMPO=_F(GROUP_MA="S_inf", DX=0, DY=0.0, DZ=0))

chg_p = AFFE_CHAR_MECA(MODELE=model, PRES_REP=_F(GROUP_MA="S_e", PRES=1000))

# Time discretization
list_t = DEFI_LIST_REEL(DEBUT=0.0, INTERVALLE=_F(JUSQU_A=10.0, PAS=1.0))

list_i = DEFI_LIST_INST(METHODE="MANUEL", DEFI_LIST=_F(LIST_INST=list_t))

rampe = DEFI_FONCTION(NOM_PARA="INST", VALE=(0.0, 0.0, 10.0, 1.0))

# Complete computation to create base
stnl = STAT_NON_LINE(
    MODELE=model,
    CHAM_MATER=chmat,
    EXCIT=(_F(CHARGE=chg_b), _F(CHARGE=chg_p, FONC_MULT=rampe)),
    INCREMENT=_F(LIST_INST=list_i),
    COMPORTEMENT=_F(RELATION="VMIS_ISOT_LINE"),
)

stnl = CALC_CHAMP(reuse=stnl, RESULTAT=stnl, CONTRAINTE="SIEF_NOEU")

# --------------------------------------------------------------------
#   TEST THE EXTRACTION PROCEDURE FROM THE RESULT
# --------------------------------------------------------------------
from code_aster.MacroCommands.ROM.calc_pod_mod import *

nDOF = 192
nELGA_SIEF = 384
nTimeSteps = 11

arrPetsc_depl = extractSnapshotsFromResult(stnl, "DEPL", "petsc")


# # - Tests
test.assertEqual(arrPetsc_depl.getSize()[0], nDOF, msg="Test initialisation array PETSc - 1")
test.assertEqual(arrPetsc_depl.getSize()[1], nTimeSteps, msg="Test initialisation array PETSc - 2")


# --------------------------------------------------------------------
#   TEST ROB CONSTRUCTION FROM THE EXTRACTED RESULT
# --------------------------------------------------------------------
def test_singular_values(singval_num, singval_ref, msg_end):
    test_array_floats(singval_num, singval_ref, "singval = ", msg_end)


def test_array_floats(arr_num, arr_ref, msg_begin, msg_end):
    for i in range(len(arr_ref)):
        test.assertAlmostEqual(arr_num[i], arr_ref[i], msg=msg_begin + str(i) + " " + msg_end)


# - Compute the ROB using the snapshot method
POD_An1 = PODAnalysis(arrPetsc_depl, method="snapshot", criterion="energy", tolerance=1e-5)

Phi, singval = POD_An1.computePODBasis(option=2)
dRate = POD_An1.computeDecayRate(singval)
test.assertAlmostEqual(dRate, -8.255, places=3)
test.assertEqual(Phi.getSize()[0], nDOF)
test.assertEqual(Phi.getSize()[1], 2)

singval_An1_ref = [5.0746443, 0.01660781]
test_singular_values(singval, singval_An1_ref, msg_end="using snapshot")

singval_An2_ref = [5.07464430e00, 1.66078074e-02, 3.09228298e-03]
POD_An2 = PODAnalysis(arrPetsc_depl, method="snapshot", criterion="nbModes", nbModes=3)
Phi_2, singval = POD_An2.computePODBasis(option=2)
test.assertEqual(Phi_2.getSize()[1], 3, msg="snapshot - nbModes - depl")
test_singular_values(singval, singval_An2_ref, msg_end="using snapshot")

singval_An3_ref = [5.07464430e00, 1.66078074e-02, 3.09228298e-03, 1.58907559e-03]
POD_An3 = PODAnalysis(arrPetsc_depl, method="SVD", criterion="nbModes", nbModes=4)
Phi_3, singval = POD_An3.computePODBasis(option=2)
test.assertEqual(Phi_3.getSize()[1], 4, msg="SVD - depl")
test_singular_values(singval, singval_An3_ref, msg_end="using SVD")


singval_An4_ref = [
    5.69003196e-03,
    9.18862194e-02,
    4.29590502e-03,
    1.06320901e-03,
    4.22215326e-04,
    3.99430747e-05,
    4.13119530e-05,
]
POD_An4 = PODAnalysis(arrPetsc_depl, method="GS-classical", criterion="energy", tolerance=1e-5)
Phi_4, singval = POD_An4.computePODBasis(option=2)
test.assertEqual(Phi_4.getSize()[1], 7, msg="GS-classical - depl")
test_singular_values(singval, singval_An4_ref, msg_end="using GS-classical")

singval_An5_ref = [
    5.69003196e-03,
    9.18862194e-02,
    4.29590502e-03,
    1.06320901e-03,
    4.22215326e-04,
    3.99430747e-05,
    4.13119530e-05,
]
POD_An5 = PODAnalysis(arrPetsc_depl, method="GS-modified", criterion="energy", tolerance=1e-5)
Phi_5, singval = POD_An4.computePODBasis(option=2)
test.assertEqual(Phi_5.getSize()[1], 7, msg="GS-modified - depl")
test_singular_values(singval, singval_An5_ref, msg_end="using GS-modified")

abs_errors, _ = computeProjectionErrors(Phi_3, arrPetsc_depl)
abs_errors_ref = [
    0.00000000e00,
    8.96514117e-05,
    2.94810994e-04,
    1.80094937e-04,
    1.79255363e-04,
    5.64140803e-05,
    6.13216146e-05,
    1.18767500e-04,
    1.06222287e-04,
    2.36268765e-05,
    1.24637040e-04,
]
test_array_floats(abs_errors_ref, abs_errors, "Absolyte errors - ", "- case SVD")

# --------------------------------------------------------------------
#   TEST FOR ORTHONORMALITY
# --------------------------------------------------------------------
test.assertTrue(is_orthonormal_basis(Phi, POD_An1._corrOperator), msg="Orthonormality test - 1")
test.assertTrue(is_orthonormal_basis(Phi_2, POD_An2._corrOperator), msg="Orthonormality test - 2")
test.assertTrue(is_orthonormal_basis(Phi_3, POD_An3._corrOperator), msg="Orthonormality test - 3")
test.assertTrue(is_orthonormal_basis(Phi_4, POD_An4._corrOperator), msg="Orthonormality test - 4")
test.assertTrue(is_orthonormal_basis(Phi_5, POD_An5._corrOperator), msg="Orthonormality test - 5")


FIN()
