# coding=utf-8
# --------------------------------------------------------------------
# Copyright (C) 1991 - 2026 - EDF - www.code-aster.org
# This file is part of code_aster.
#
# code_aster is free software: you can redistribute it and/or modify
# it under the terms of the GNU General Public License as published by
# the Free Software Foundation, either version 3 of the License, or
# (at your option) any later version.
#
# code_aster is distributed in the hope that it will be useful,
# but WITHOUT ANY WARRANTY; without even the implied warranty of
# MERCHANTABILITY or FITNESS FOR A PARTICULAR PURPOSE.  See the
# GNU General Public License for more details.
#
# You should have received a copy of the GNU General Public License
# along with code_aster.  If not, see <http://www.gnu.org/licenses/>.
# --------------------------------------------------------------------

from code_aster.Commands import *
from code_aster import CA

test = CA.TestCase()

# --------------------------------------------------------------------
#   HF COMPUTATION
# --------------------------------------------------------------------

DEBUT(CODE="OUI", ERREUR=_F(ALARME="EXCEPTION"), DEBUG=_F(SDVERI="OUI"))

mesh = LIRE_MAILLAGE(FORMAT="MED")

mesh = MODI_MAILLAGE(reuse=mesh, MAILLAGE=mesh, ORIE_PEAU=_F(GROUP_MA_PEAU="S_e"))

# Define the material
steel = DEFI_MATERIAU(ELAS=_F(E=210000.0, NU=0.3), ECRO_LINE=_F(D_SIGM_EPSI=100.0, SY=100.0))

chmat = AFFE_MATERIAU(MAILLAGE=mesh, AFFE=_F(TOUT="OUI", MATER=steel))
# Mechanic model
model = AFFE_MODELE(MAILLAGE=mesh, AFFE=_F(TOUT="OUI", PHENOMENE="MECANIQUE", MODELISATION="3D"))

# Boundary condition
chg_b = AFFE_CHAR_CINE(MODELE=model, MECA_IMPO=_F(GROUP_MA="S_inf", DX=0, DY=0.0, DZ=0))

chg_p = AFFE_CHAR_MECA(MODELE=model, PRES_REP=_F(GROUP_MA="S_e", PRES=1000))

# Time discretization
list_t = DEFI_LIST_REEL(DEBUT=0.0, INTERVALLE=_F(JUSQU_A=10.0, PAS=1.0))

list_i = DEFI_LIST_INST(METHODE="MANUEL", DEFI_LIST=_F(LIST_INST=list_t))

rampe = DEFI_FONCTION(NOM_PARA="INST", VALE=(0.0, 0.0, 10.0, 1.0))

# Complete computation to create base
stnl = STAT_NON_LINE(
    MODELE=model,
    CHAM_MATER=chmat,
    EXCIT=(_F(CHARGE=chg_b), _F(CHARGE=chg_p, FONC_MULT=rampe)),
    INCREMENT=_F(LIST_INST=list_i),
    COMPORTEMENT=_F(RELATION="VMIS_ISOT_LINE"),
)

stnl = CALC_CHAMP(reuse=stnl, RESULTAT=stnl, CONTRAINTE="SIEF_NOEU")

# --------------------------------------------------------------------
#   TEST THE EXTRACTION PROCEDURE FROM THE RESULT
# --------------------------------------------------------------------
from code_aster.MacroCommands.ROM.calc_pod_mod import *

arr_depl = extractSnapshotsFromResult(stnl, "DEPL")

nDOF = 192
n_cut = 3

arr_depl_A = arr_depl[:, :n_cut]
arr_depl_B = arr_depl[:, n_cut:]

# - Compute the ROB using the snapshot method
POD_An_A = PODAnalysis(arr_depl_A, method="snapshot", criterion="energy", tolerance=1e-5)
Phi_A = POD_An_A.computePODBasis(option=1)

test.assertEqual(Phi_A.shape[0], nDOF)
test.assertEqual(Phi_A.shape[1], 2)

POD_An_B = PODAnalysis(arr_depl_B, method="snapshot", criterion="energy", tolerance=1e-5)
Phi_B = POD_An_B.computePODBasisIncremental(Phi_A, method="HPOD")

test.assertEqual(Phi_B.shape[0], nDOF)
test.assertEqual(Phi_B.shape[1], 5)

FIN()
