# coding=utf-8
# --------------------------------------------------------------------
# Copyright (C) 1991 - 2026 - EDF - www.code-aster.org
# This file is part of code_aster.
#
# code_aster is free software: you can redistribute it and/or modify
# it under the terms of the GNU General Public License as published by
# the Free Software Foundation, either version 3 of the License, or
# (at your option) any later version.
#
# code_aster is distributed in the hope that it will be useful,
# but WITHOUT ANY WARRANTY; without even the implied warranty of
# MERCHANTABILITY or FITNESS FOR A PARTICULAR PURPOSE.  See the
# GNU General Public License for more details.
#
# You should have received a copy of the GNU General Public License
# along with code_aster.  If not, see <http://www.gnu.org/licenses/>.
# --------------------------------------------------------------------

#
# --------------------------------------------------------------------------------
# TEST V7.22.140
# ESSAI DE DILATOMETRIE (CHARGEMENT THERMIQUE CYCLIQUE) SUR UN TUBE - ACIER 316L
# LOI ELASTOPLASTIQUE DE VON MISES A ECROUISSAGE ISOTROPE NON LINEAIRE
# PETITE DEFORMATION
# CALCUL 2D AXI-SYMETRIQUE
# MAILLAGE QUAD4
# --------------------------------------------------------------------------------
# UNITES : mm et MPa

DEBUT(CODE="OUI", ERREUR=_F(ALARME="EXCEPTION"), DEBUG=_F(SDVERI="OUI"))

MAIL = LIRE_MAILLAGE(FORMAT="ASTER")

#
# Chargement thermique
#

TEMP1 = DEFI_FONCTION(
    NOM_PARA="INST",
    VALE=(
        # cycle 1
        0.0,
        20.0,
        100,
        1125.0,
        200,
        21.0,
        # cycle 2
        300,
        932.0,
        400,
        22.0,
        # cycle 3
        500,
        685.0,
        600,
        22.0,
        # cycle 4
        700,
        473.0,
        800,
        21.0,
    ),
    PROL_GAUCHE="CONSTANT",
    PROL_DROITE="CONSTANT",
)

LLPAS = DEFI_LIST_REEL(DEBUT=0.0, INTERVALLE=_F(JUSQU_A=800.0, NOMBRE=800))
L_INST1 = DEFI_LIST_INST(DEFI_LIST=_F(LIST_INST=LLPAS))
#
CHTH = CREA_CHAMP(
    OPERATION="AFFE",
    TYPE_CHAM="NOEU_TEMP_F",
    MAILLAGE=MAIL,
    AFFE=_F(TOUT="OUI", NOM_CMP="TEMP", VALE_F=TEMP1),
)
#
THER1 = CREA_RESU(
    OPERATION="AFFE", TYPE_RESU="EVOL_THER", AFFE=_F(NOM_CHAM="TEMP", CHAM_GD=CHTH, LIST_INST=LLPAS)
)
#
# Calcul Mecanique
#

MOMECA1 = AFFE_MODELE(
    MAILLAGE=MAIL, AFFE=_F(TOUT="OUI", PHENOMENE="MECANIQUE", MODELISATION="AXIS")
)


CHMECA1 = AFFE_CHAR_MECA(
    MODELE=MOMECA1, DDL_IMPO=(_F(GROUP_NO=("NO1", "NO2", "NO3", "NO4"), DY=0.0))
)

# COURBES DE TRACTION - VERSION VMIS_ISOT_NL
# Matériau -> Acier316L
# Parametres issues du code d'Eric Lorentz -> issue33631
f_R0 = DEFI_FONCTION(
    NOM_PARA="TEMP",
    VALE=(
        0,
        296.8888888888889,
        10,
        291.94444444444446,
        20,
        287.0,
        30,
        282.05555555555554,
        40,
        277.1111111111111,
        50,
        272.1666666666667,
        60,
        267.22222222222223,
        70,
        262.27777777777777,
        80,
        257.3333333333333,
        90,
        252.38888888888889,
# ... 224 like lines cut
    ),
    PROL_DROITE="CONSTANT",
    PROL_GAUCHE="CONSTANT",
)

# PARAMETRE RH
f_RH = DEFI_FONCTION(
    NOM_PARA="TEMP",
    VALE=(
        0,
        8.883299742036623e-24,
        10,
        6.703768529332927e-23,
        20,
        3.6110968974553887e-06,
        30,
        0.35227755129000327,
        40,
        0.662872673539911,
        50,
        0.9325802756832392,
        60,
        1.161810315479203,
        70,
        1.3507796179122913,
        80,
        1.4998397289398102,
        90,
        1.608743048851487,
# ... 264 like lines cut
    ),
    PROL_DROITE="CONSTANT",
    PROL_GAUCHE="CONSTANT",
)

# PARAMETRE R1
f_R1 = DEFI_FONCTION(
    NOM_PARA="TEMP",
    VALE=(
        0,
        1882.2821746345512,
        10,
        1870.0775255163135,
        20,
        1857.9037292504465,
        30,
        1844.2234284154333,
        40,
        1830.7493220788012,
        50,
        1817.4800684306276,
        60,
        1804.4161170000891,
        70,
        1791.5589065729955,
        80,
        1778.909432338277,
        90,
        1766.471505262224,
# ... 264 like lines cut
    ),
    PROL_DROITE="CONSTANT",
    PROL_GAUCHE="CONSTANT",
)

# PARAMETRE G1
f_G1 = DEFI_FONCTION(
    NOM_PARA="TEMP",
    VALE=(
        0,
        0.6046125520791193,
        10,
        0.6024506064282062,
        20,
        0.60024996236358,
        30,
        0.5983586832846585,
        40,
        0.596389558266108,
        50,
        0.5943418938866556,
        60,
        0.5922145996955774,
        70,
        0.5900063682339839,
        80,
        0.5877160041810823,
        90,
        0.5853416770320564,
# ... 264 like lines cut
    ),
    PROL_DROITE="CONSTANT",
    PROL_GAUCHE="CONSTANT",
)

# PARAMETRE R2
f_R2 = DEFI_FONCTION(
    NOM_PARA="TEMP",
    VALE=(
        0,
        70.8979992694461,
        10,
        72.56569238268138,
        20,
        74.23453077943452,
        30,
        75.89054922873011,
        40,
        77.54913931479292,
        50,
        79.21014384283383,
        60,
        80.8734238562072,
        70,
        82.53885002797165,
        80,
        84.20628997309434,
        90,
        85.87563535836823,
# ... 264 like lines cut
    ),
    PROL_DROITE="CONSTANT",
    PROL_GAUCHE="CONSTANT",
)

# PARAMETRE G2
f_G2 = DEFI_FONCTION(
    NOM_PARA="TEMP",
    VALE=(
        0,
        47.38900630507368,
        10,
        46.27071434173758,
        20,
        45.255723141155485,
        30,
        44.354143543886565,
        40,
        43.52385507546432,
        50,
        42.75629435846338,
        60,
        42.044275923156704,
        70,
        41.381722649536734,
        80,
        40.763468688273306,
        90,
        40.18505366008654,
# ... 264 like lines cut
    ),
    PROL_DROITE="CONSTANT",
    PROL_GAUCHE="CONSTANT",
)


E_Inox = DEFI_FONCTION(
    NOM_PARA="TEMP",
    VALE=(
        20,
        197000,
        200,
        184000,
        300,
        176500,
        400,
        168000,
        500,
        160000,
        600,
        151500,
        700,
        142500,
        800,
        130000,
        900,
        108000,
        1000,
        81500,
# ... 8 like lines cut
    ),
    PROL_DROITE="LINEAIRE",
    PROL_GAUCHE="LINEAIRE",
)


NU_Inox = DEFI_FONCTION(
    NOM_PARA="TEMP",
    VALE=(
        25,
        0.296,
        100,
        0.298,
        200,
        0.304,
        400,
        0.315,
        500,
        0.320,
        600,
        0.323,
        700,
        0.326,
        800,
        0.330,
        900,
        0.336,
        1000,
        0.339,
# ... 14 like lines cut
    ),
    PROL_DROITE="LINEAIRE",
    PROL_GAUCHE="LINEAIRE",
)

# COEFFICIENT DE DILATATION
DTH_Inox = [
    20.0,
    15.9e-6,
    100,
    16.25e-6,
    200,
    16.70e-6,
    300,
    17.10e-6,
    400,
    17.40e-6,
    500,
    17.90e-6,
    600,
    18.30e-6,
    700,
    18.50e-6,
    800,
    18.80e-6,
    900,
    19.10e-6,
# ... 8 like lines cut
]
#
ALP_Inox = DEFI_FONCTION(
    NOM_PARA="TEMP", VALE=DTH_Inox, PROL_DROITE="CONSTANT", PROL_GAUCHE="CONSTANT"
)

#
# PARAMETRES DE RESTAURATION D'ECROUISSAGE
#
Tdebut = 600.0
# Temperature de debut de restauration
Tfin = 1200.0
# Temperature de restauration complete
#
# Valeurs du coefficient alpha en fonction de la temperature
L_alpha = [
    680.0,
    1.154,
    750.0,
    1.335,
    825.0,
    1.308,
    900.0,
    1.165,
    1000.0,
    0.181,
    1075.0,
    0.687,
    1150.0,
    0.408,
]
#
# Valeurs du coefficient tau_infini en fonction de la temperature
L_tauinf = [
    Tdebut,
    1.0,
    680.0,
    0.877,
    750.0,
    0.767,
    825.0,
    0.682,
    900.0,
    0.576,
    1000.0,
    0.071,
    1075.0,
    0.052,
    1150.0,
    0.045,
    Tfin,
    0.0,
]
# ------------------------------------------------
COEF1 = DEFI_FONCTION(
    NOM_PARA="TEMP", VALE=(L_alpha), PROL_DROITE="CONSTANT", PROL_GAUCHE="LINEAIRE"
)
#
TAU1 = DEFI_FONCTION(
    NOM_PARA="TEMP", VALE=(L_tauinf), PROL_DROITE="CONSTANT", PROL_GAUCHE="CONSTANT"
)
#
ACIERME0 = DEFI_MATERIAU(
    ELAS_FO=_F(E=E_Inox, NU=NU_Inox, ALPHA=ALP_Inox, TEMP_DEF_ALPHA=20.00),
    ECRO_NL_FO=_F(R0=f_R0, R2=f_R2, RH=f_RH, GAMMA_1=f_G1, R1=f_R1, GAMMA_2=f_G2),
    REST_ECRO=_F(COEF_ECRO=COEF1, TAU_INF=TAU1, TEMP_MINI=Tdebut, TEMP_MAXI=Tfin),
)

CHMATM0 = AFFE_MATERIAU(
    MAILLAGE=MAIL,
    AFFE=_F(TOUT="OUI", MATER=ACIERME0),
    AFFE_VARC=_F(TOUT="OUI", EVOL=THER1, NOM_VARC="TEMP", NOM_CHAM="TEMP", VALE_REF=20.0),
)

U1 = STAT_NON_LINE(
    MODELE=MOMECA1,
    CHAM_MATER=CHMATM0,
    EXCIT=_F(CHARGE=CHMECA1),
    COMPORTEMENT=_F(
        RELATION="VMIS_ISOT_NL", DEFORMATION="PETIT", TOUT="OUI", POST_INCR="REST_ECRO"
    ),
    INCREMENT=_F(LIST_INST=L_INST1, NUME_INST_FIN=800),
    NEWTON=_F(REAC_INCR=1, MATRICE="TANGENTE", REAC_ITER=1),
    CONVERGENCE=_F(RESI_GLOB_RELA=5.0e-05, ITER_GLOB_MAXI=50, ARRET="OUI"),
)

#
# Post traitement
#
U1 = CALC_CHAMP(
    reuse=U1,
    MODELE=MOMECA1,
    CHAM_MATER=CHMATM0,
    CONTRAINTE=("SIEF_NOEU"),
    VARI_INTERNE=("VARI_NOEU"),
    RESULTAT=U1,
)
#
TEST_RESU(
    RESU=(
        _F(
            INST=100.0,
            RESULTAT=U1,
            NOM_CHAM="VARI_NOEU",
            GROUP_NO="NO1",
            NOM_CMP="V1",
            VALE_CALC=0.0004470444846458493,
            VALE_REFE=0.00044,
            REFERENCE="SOURCE_EXTERNE",
            PRECISION=0.25,
        ),
        _F(
            INST=200.0,
            RESULTAT=U1,
            NOM_CHAM="SIEF_NOEU",
            GROUP_NO="NO1",
            NOM_CMP="SIYY",
            VALE_CALC=349.4994551941154,
            VALE_REFE=303.0,
            REFERENCE="SOURCE_EXTERNE",
            PRECISION=0.25,
        ),
        _F(
            INST=400.0,
            RESULTAT=U1,
            NOM_CHAM="SIEF_NOEU",
            GROUP_NO="NO1",
            NOM_CMP="SIYY",
            VALE_CALC=365.85852194026506,
            VALE_REFE=316.0,
            REFERENCE="SOURCE_EXTERNE",
            PRECISION=0.25,
        ),
        _F(
            INST=600.0,
            RESULTAT=U1,
            NOM_CHAM="SIEF_NOEU",
            GROUP_NO="NO1",
            NOM_CMP="SIYY",
            VALE_CALC=391.34073681300936,
            VALE_REFE=325.0,
            REFERENCE="SOURCE_EXTERNE",
            PRECISION=0.25,
        ),
        _F(
            INST=800.0,
            RESULTAT=U1,
            NOM_CHAM="SIEF_NOEU",
            GROUP_NO="NO1",
            NOM_CMP="SIYY",
            VALE_CALC=405.15243297009016,
            VALE_REFE=327.0,
            REFERENCE="SOURCE_EXTERNE",
            PRECISION=0.25,
        ),
    )
)

FIN()
