# coding=utf-8
# --------------------------------------------------------------------
# Copyright (C) 1991 - 2026 - EDF - www.code-aster.org
# This file is part of code_aster.
#
# code_aster is free software: you can redistribute it and/or modify
# it under the terms of the GNU General Public License as published by
# the Free Software Foundation, either version 3 of the License, or
# (at your option) any later version.
#
# code_aster is distributed in the hope that it will be useful,
# but WITHOUT ANY WARRANTY; without even the implied warranty of
# MERCHANTABILITY or FITNESS FOR A PARTICULAR PURPOSE.  See the
# GNU General Public License for more details.
#
# You should have received a copy of the GNU General Public License
# along with code_aster.  If not, see <http://www.gnu.org/licenses/>.
# --------------------------------------------------------------------

DEBUT(CODE="OUI", DEBUG=_F(SDVERI="OUI"))

from math import pi, cos, sin

### >>>>>>>>>>>>>
### Read the mesh
### <<<<<<<<<<<<<

MA = LIRE_MAILLAGE(FORMAT="ASTER")

### >>>>>>>>>>>>>>>>
### Affect the model
### <<<<<<<<<<<<<<<<

MO = AFFE_MODELE(
    MAILLAGE=MA,
    AFFE=(
        _F(GROUP_MA="CUBE", PHENOMENE="MECANIQUE", MODELISATION="D_PLAN"),
        _F(GROUP_MA="CUBEDEG", PHENOMENE="MECANIQUE", MODELISATION="PLAN_INTERFACE"),
    ),
)

ORIEN_FI = AFFE_CARA_ELEM(MODELE=MO, MASSIF=(_F(GROUP_MA="CUBEDEG", ANGL_REP=(30, 0, 0))))

### >>>>>>>>>>>>>>>>>>>
### Material properties
### <<<<<<<<<<<<<<<<<<<

E = 0.5e6
NU = 0
KN = 3e12
KT = 3e12
COHE = 1e6
FROT = 0.5
L = 1  # length of the square
R = 10 * E / L

# For ADHE = "ELAS"
MAT_ELAS = DEFI_MATERIAU(
    ELAS=_F(E=E, NU=NU),
    CZM_FROT_MIX=_F(
        RIGI_NOR=KN, RIGI_TAN=KT, ADHE="ELAS", COHESION=COHE, COEF_FROT=FROT, PENA_LAGR_ABSO=R
    ),
)

# For ADHE = "PARFAITE"
MAT_PARFAITE = DEFI_MATERIAU(
    ELAS=_F(E=E, NU=NU),
    CZM_FROT_MIX=_F(ADHE="PARFAITE", COHESION=COHE, COEF_FROT=FROT, PENA_LAGR_ABSO=R),
)

### >>>>>>>>>>>>>>>>>>>>
### Material affectation
### <<<<<<<<<<<<<<<<<<<<

CM_ELAS = AFFE_MATERIAU(MAILLAGE=MA, AFFE=_F(TOUT="OUI", MATER=MAT_ELAS))

CM_PARFAITE = AFFE_MATERIAU(MAILLAGE=MA, AFFE=_F(TOUT="OUI", MATER=MAT_PARFAITE))

### >>>>>>>>>>>>>>>>>>>
### Boundary conditions
### <<<<<<<<<<<<<<<<<<<

LIAISON = AFFE_CHAR_CINE(MODELE=MO, MECA_IMPO=(_F(GROUP_MA="GAUCHE2", DX=0, DY=0)))

# Mode I
TRAC_1 = AFFE_CHAR_CINE(
    MODELE=MO, MECA_IMPO=(_F(GROUP_MA="DROITE", DX=cos(pi / 6), DY=sin(pi / 6)))
)
u_1 = 1.5 * COHE / FROT * (L / E + 1 / KN)
FCT_1 = DEFI_FONCTION(NOM_PARA="INST", VALE=(0, 0, 1, u_1))

# Mode II
TRAC_2 = AFFE_CHAR_CINE(MODELE=MO, MECA_IMPO=(_F(GROUP_MA="CUBE", DX=-sin(pi / 6), DY=cos(pi / 6))))
u_2 = 1.5 * COHE / KT
FCT_2 = DEFI_FONCTION(NOM_PARA="INST", VALE=(0, 0, 1, u_2))

### >>>>>>>>>>
### Time steps
### <<<<<<<<<<

L_INST = DEFI_LIST_REEL(DEBUT=0, INTERVALLE=(_F(JUSQU_A=1, NOMBRE=5)))

### >>>>>>>>>>>>>>>>>>>>>>>>>>>>>>>>>>>>>>
### Solution for mode I with ADHE = "ELAS"
### <<<<<<<<<<<<<<<<<<<<<<<<<<<<<<<<<<<<<<

U_1 = STAT_NON_LINE(
    MODELE=MO,
    CHAM_MATER=CM_ELAS,
    CARA_ELEM=ORIEN_FI,
    EXCIT=(_F(CHARGE=LIAISON), _F(CHARGE=TRAC_1, FONC_MULT=FCT_1)),
    COMPORTEMENT=(
        _F(RELATION="CZM_FROT_MIX", GROUP_MA="CUBEDEG"),
        _F(RELATION="ELAS", GROUP_MA="CUBE"),
    ),
    INCREMENT=_F(LIST_INST=L_INST),
    SOLVEUR=_F(METHODE="MUMPS"),
    CONVERGENCE=_F(
        RESI_REFE_RELA=1e-6, SIGM_REFE=COHE / FROT, DEPL_REFE=COHE / FROT / KN, ITER_GLOB_MAXI=10
    ),
    NEWTON=_F(MATRICE="TANGENTE"),
)

TEST_RESU(
    RESU=_F(
        INST=1,
        REFERENCE="ANALYTIQUE",
        POINT=1,
        RESULTAT=U_1,
        NOM_CHAM="SIEF_ELGA",
        NOM_CMP="SIGN",
        VALE_REFE=2e6,
        VALE_CALC=2e6,
        GROUP_MA="CUBEDEG",
    )
)

TEST_RESU(
    RESU=_F(
        INST=1,
        REFERENCE="ANALYTIQUE",
        POINT=1,
        RESULTAT=U_1,
        NOM_CHAM="VARI_ELGA",
        NOM_CMP="V7",
        VALE_REFE=1,
        VALE_CALC=1,
        GROUP_MA="CUBEDEG",
    )
)

### >>>>>>>>>>>>>>>>>>>>>>>>>>>>>>>>>>>>>>>>>>
### Solution for mode I with ADHE = "PARFAITE"
### <<<<<<<<<<<<<<<<<<<<<<<<<<<<<<<<<<<<<<<<<<

U_2 = STAT_NON_LINE(
    MODELE=MO,
    CHAM_MATER=CM_PARFAITE,
    CARA_ELEM=ORIEN_FI,
    EXCIT=(_F(CHARGE=LIAISON), _F(CHARGE=TRAC_1, FONC_MULT=FCT_1)),
    COMPORTEMENT=(
        _F(RELATION="CZM_FROT_MIX", GROUP_MA="CUBEDEG"),
        _F(RELATION="ELAS", GROUP_MA="CUBE"),
    ),
    INCREMENT=_F(LIST_INST=L_INST),
    SOLVEUR=_F(METHODE="MUMPS"),
    CONVERGENCE=_F(
        RESI_REFE_RELA=1e-6, SIGM_REFE=COHE / FROT, DEPL_REFE=COHE / FROT / KN, ITER_GLOB_MAXI=10
    ),
    NEWTON=_F(MATRICE="TANGENTE"),
)

TEST_RESU(
    RESU=_F(
        INST=1,
        REFERENCE="ANALYTIQUE",
        POINT=1,
        RESULTAT=U_2,
        NOM_CHAM="SIEF_ELGA",
        NOM_CMP="SIGN",
        VALE_REFE=2e6,
        VALE_CALC=2e6,
        GROUP_MA="CUBEDEG",
    )
)

TEST_RESU(
    RESU=_F(
        INST=1,
        REFERENCE="ANALYTIQUE",
        POINT=1,
        RESULTAT=U_2,
        NOM_CHAM="VARI_ELGA",
        NOM_CMP="V7",
        VALE_REFE=1,
        VALE_CALC=1,
        GROUP_MA="CUBEDEG",
    )
)

### >>>>>>>>>>>>>>>>>>>>>>>>>>>>>>>>>>>>>>>
### Solution for mode II with ADHE = "ELAS"
### <<<<<<<<<<<<<<<<<<<<<<<<<<<<<<<<<<<<<<<

U_3 = STAT_NON_LINE(
    MODELE=MO,
    CHAM_MATER=CM_ELAS,
    CARA_ELEM=ORIEN_FI,
    EXCIT=(_F(CHARGE=LIAISON), _F(CHARGE=TRAC_2, FONC_MULT=FCT_2)),
    COMPORTEMENT=(
        _F(RELATION="CZM_FROT_MIX", GROUP_MA="CUBEDEG"),
        _F(RELATION="ELAS", GROUP_MA="CUBE"),
    ),
    INCREMENT=_F(LIST_INST=L_INST),
    SOLVEUR=_F(METHODE="MUMPS"),
    CONVERGENCE=_F(RESI_REFE_RELA=1e-6, SIGM_REFE=COHE, DEPL_REFE=COHE / KT, ITER_GLOB_MAXI=10),
    NEWTON=_F(MATRICE="TANGENTE"),
)

TEST_RESU(
    RESU=_F(
        INST=1,
        REFERENCE="ANALYTIQUE",
        POINT=1,
        RESULTAT=U_3,
        NOM_CHAM="SIEF_ELGA",
        NOM_CMP="SITX",
        VALE_REFE=1e6,
        VALE_CALC=1e6,
        GROUP_MA="CUBEDEG",
    )
)

TEST_RESU(
    RESU=_F(
        INST=1,
        REFERENCE="ANALYTIQUE",
        POINT=1,
        RESULTAT=U_3,
        NOM_CHAM="VARI_ELGA",
        NOM_CMP="V6",
        VALE_REFE=1,
        VALE_CALC=1,
        GROUP_MA="CUBEDEG",
    )
)

FIN()
