# coding=utf-8
# --------------------------------------------------------------------
# Copyright (C) 1991 - 2026 - EDF - www.code-aster.org
# This file is part of code_aster.
#
# code_aster is free software: you can redistribute it and/or modify
# it under the terms of the GNU General Public License as published by
# the Free Software Foundation, either version 3 of the License, or
# (at your option) any later version.
#
# code_aster is distributed in the hope that it will be useful,
# but WITHOUT ANY WARRANTY; without even the implied warranty of
# MERCHANTABILITY or FITNESS FOR A PARTICULAR PURPOSE.  See the
# GNU General Public License for more details.
#
# You should have received a copy of the GNU General Public License
# along with code_aster.  If not, see <http://www.gnu.org/licenses/>.
# --------------------------------------------------------------------

#
#
# --------------------------------------------------------------------------------------------------
#
#                   LOI BETON_RAG
#
#   Vérification du comportement mécanique avec endommagement + puis fluage
#
# 3 : compression / Epsi  1d / Sigma diagonal / Contrainte imposée
#
# --------------------------------------------------------------------------------------------------
DEBUT(CODE="OUI")
#
# !! !! !! !! !! !! !! !! !! !! !! !! !! !! !! !! !! !! !! !! !! !! !! !! !!
#
#   NE PAS UTILISER LES CARACTÉRISTIQUES MATÉRIAUX DE "BETON_RAG"
#   DE CE CAS TEST POUR FAIRE DES ÉTUDES.
#
#   ILS NE SONT PAS PHYSIQUES, ILS SERVENT À DE LA VÉRIFICATION MATHÉMATIQUE
#
# !! !! !! !! !! !! !! !! !! !! !! !! !! !! !! !! !! !! !! !! !! !! !! !! !!
#

import numpy as np
from numpy import exp


def analy_sixx(t):
    t = np.array(t)
    return (
        -9046996.20099999
        + 4843005.44435835 * exp(-1.39542378094553 * t)
        - 11512723.2071953 * exp(-0.295832420064247 * t)
        + 3654052.35871353 * exp(-0.0137808360272591 * t)
    )


# Paramètres matériau
# /!\ Ne pas utiliser ces paramètres dans des études, ils ne sont pas physiques, et servent uniquement à de la vérification mathématique
E = 32000.0e06
nu = 0.25
k_r_sph = 1.6e10  # Cette valeur permet d'éviter les contraintes quasi nulles
eta_r_sph = 8.0e10
eta_i_sph = 1.0e12
k_r_dev = 1.2e10
eta_r_dev = 2.4e10
eta_i_dev = 5.0e11
kappa_i = 0.0

# Pression imposée
pres = 36.187984804e06

# Paramètres temporels
Tmeca = 1.0
NbPasMeca = 5
Tflua = 34.0
NbPasFlua = 340

# Paramètres de convergence
ResiGlob = 1.0e-09
ResiInteRela = 1.0e-07

# Début étude Aster
MAIL = LIRE_MAILLAGE(FORMAT="ASTER")

MOMECA = AFFE_MODELE(MAILLAGE=MAIL, AFFE=_F(TOUT="OUI", PHENOMENE="MECANIQUE", MODELISATION="3D"))

MATMECA = DEFI_MATERIAU(
    ELAS=_F(E=E, NU=nu),
    BETON_RAG=_F(
        COMP_BETON="ENDO",
        ENDO_MC=1.95,
        ENDO_MT=2.00,
        ENDO_SIGUC=-35.00e06,
        ENDO_SIGUT=-3.18e06,
        ENDO_DRUPRA=0.15,
    ),
)

MATFLUA_BRAG = DEFI_MATERIAU(
    ELAS=_F(E=E, NU=nu),
    BETON_RAG=_F(
        COMP_BETON="ENDO_FLUA",
        # unités : Pa
        ENDO_MC=1.95,
        ENDO_MT=2.00,
        ENDO_SIGUC=-35.00e06,
        ENDO_SIGUT=-3.18e06,
        ENDO_DRUPRA=0.15,
        # Unités : Pa Jour
        FLUA_SPH_KR=k_r_sph,
        FLUA_SPH_NR=eta_r_sph,
        FLUA_SPH_NI=eta_i_sph,
        FLUA_DEV_KR=k_r_dev,
        FLUA_DEV_NR=eta_r_dev,
        FLUA_DEV_NI=eta_i_dev,
    ),
)

FONC1 = DEFI_FONCTION(
    NOM_PARA="SECH", PROL_DROITE="LINEAIRE", PROL_GAUCHE="LINEAIRE", VALE=(0.0, 0.0, 1.0, 1.0)
)

MATFLUA_BBUR = DEFI_MATERIAU(
    ELAS_FO=_F(
        E=DEFI_CONSTANTE(VALE=E),
        NU=DEFI_CONSTANTE(VALE=nu),
        TEMP_DEF_ALPHA=0.0,
        ALPHA=DEFI_CONSTANTE(VALE=0.0),
    ),
    BETON_DESORP=_F(FONC_DESORP=FONC1),
    BETON_BURGER=_F(
        YoungModulus=E,
        PoissonRatio=nu,
        K_RS=k_r_sph,
        ETA_RS=eta_r_sph,
        ETA_IS=eta_i_sph,
        K_RD=k_r_dev,
        ETA_RD=eta_r_dev,
        ETA_ID=eta_i_dev,
        KAPPA=5e14,
        QSR_K=0.0,
        ETA_FD=0.0,
        TEMP_0_C=20.0,
    ),
)
TEMP = CREA_CHAMP(
    OPERATION="AFFE",
    TYPE_CHAM="NOEU_TEMP_R",
    MAILLAGE=MAIL,
    AFFE=_F(TOUT="OUI", NOM_CMP="TEMP", VALE=20.0),
)

SECH = CREA_CHAMP(
    OPERATION="AFFE",
    TYPE_CHAM="NOEU_TEMP_R",
    MAILLAGE=MAIL,
    AFFE=_F(TOUT="OUI", NOM_CMP="SECH", VALE=1.0),
)

CHMATM = AFFE_MATERIAU(MAILLAGE=MAIL, AFFE=_F(TOUT="OUI", MATER=MATMECA))

CHMATF_BRAG = AFFE_MATERIAU(MAILLAGE=MAIL, AFFE=_F(TOUT="OUI", MATER=MATFLUA_BRAG))
CHMATF_BBUR = AFFE_MATERIAU(
    MAILLAGE=MAIL,
    AFFE=_F(TOUT="OUI", MATER=MATFLUA_BBUR),
    AFFE_VARC=(
        _F(TOUT="OUI", CHAM_GD=SECH, NOM_VARC="SECH", VALE_REF=1),
        _F(TOUT="OUI", CHAM_GD=TEMP, NOM_VARC="TEMP", VALE_REF=20),
    ),
    MODELE=MOMECA,
)

CLMECA = AFFE_CHAR_MECA(
    MODELE=MOMECA,
    DDL_IMPO=(
        _F(GROUP_MA="BAS", DZ=0.0),
        _F(GROUP_MA="COTEG", DY=0.0),
        _F(GROUP_MA="COTED", DY=0.0),
        _F(GROUP_MA="ARRIERE", DX=0.0),
        _F(GROUP_MA="AVANT", DX=0.0),
    ),
)

# Impose une contrainte
CHMECA = AFFE_CHAR_MECA(MODELE=MOMECA, PRES_REP=_F(GROUP_MA="HAUT", PRES=pres))
FCT = DEFI_FONCTION(NOM_PARA="INST", VALE=(0.0, 0.0, Tmeca, 1.0, 1000.0, 1.0))

L_INST = DEFI_LIST_REEL(
    DEBUT=0.0,
    INTERVALLE=(_F(JUSQU_A=Tmeca, NOMBRE=NbPasMeca), _F(JUSQU_A=Tmeca + Tflua, NOMBRE=NbPasFlua)),
)
L_INST_BBUR = DEFI_LIST_REEL(
    DEBUT=0.0,
    INTERVALLE=(
        _F(JUSQU_A=Tmeca, NOMBRE=NbPasMeca),
        _F(JUSQU_A=Tmeca + Tflua, NOMBRE=NbPasFlua * 5),
    ),
)

# La partie mécanique sans fluage pour stabilisation
RESU = STAT_NON_LINE(
    MODELE=MOMECA,
    CHAM_MATER=CHMATM,
    EXCIT=(_F(CHARGE=CLMECA), _F(CHARGE=CHMECA, FONC_MULT=FCT)),
    COMPORTEMENT=_F(RELATION="BETON_RAG"),
    INCREMENT=_F(LIST_INST=L_INST, INST_FIN=Tmeca),
    NEWTON=_F(MATRICE="TANGENTE", REAC_ITER=1),
    CONVERGENCE=_F(RESI_GLOB_RELA=ResiGlob, ITER_GLOB_MAXI=20),
)

# Préparation pour fluage Bürger (MFRONT)
CHSIG = CREA_CHAMP(
    TYPE_CHAM="ELGA_SIEF_R", OPERATION="EXTR", RESULTAT=RESU, NOM_CHAM="SIEF_ELGA", INST=Tmeca
)
CHDEP = CREA_CHAMP(
    TYPE_CHAM="NOEU_DEPL_R", OPERATION="EXTR", RESULTAT=RESU, NOM_CHAM="DEPL", INST=Tmeca
)
CHEPSI = CREA_CHAMP(
    TYPE_CHAM="ELGA_EPSI_R",
    OPERATION="EXTR",
    RESULTAT=CALC_CHAMP(RESULTAT=RESU, DEFORMATION=("EPSI_ELGA")),
    NOM_CHAM="EPSI_ELGA",
    INST=Tmeca,
)

CHVARI = CREA_CHAMP(
    OPERATION="ASSE",
    MODELE=MOMECA,
    TYPE_CHAM="ELGA_VARI_R",
    ASSE=_F(
        CHAM_GD=CHEPSI,
        TOUT="OUI",
        NOM_CMP=("EPXX", "EPYY", "EPZZ", "EPXY", "EPXZ", "EPYZ"),
        NOM_CMP_RESU=("V1", "V2", "V3", "V4", "V5", "V6"),
    ),
)
CHVARI2 = CREA_CHAMP(
    OPERATION="AFFE",
    MODELE=MOMECA,
    TYPE_CHAM="ELGA_VARI_R",
    PROL_ZERO="OUI",
    AFFE=(
        _F(
            TOUT="OUI",
            NOM_CMP=["V{}".format(i) for i in range(7, 35)],
            VALE=[0.0 for i in range(7, 35)],
        )
    ),
)
CHVARIF = CREA_CHAMP(
    OPERATION="ASSE",
    MODELE=MOMECA,
    TYPE_CHAM="ELGA_VARI_R",
    ASSE=(_F(TOUT="OUI", CHAM_GD=CHVARI2), _F(TOUT="OUI", CHAM_GD=CHVARI)),
)

# La partie fluage
RESUF_BRAG = STAT_NON_LINE(
    reuse=RESU,
    MODELE=MOMECA,
    CHAM_MATER=CHMATF_BRAG,
    ETAT_INIT=_F(EVOL_NOLI=RESU, INST=Tmeca),
    EXCIT=(_F(CHARGE=CLMECA), _F(CHARGE=CHMECA, FONC_MULT=FCT)),
    COMPORTEMENT=_F(RELATION="BETON_RAG", RESI_INTE=ResiInteRela),
    INCREMENT=_F(LIST_INST=L_INST, INST_FIN=Tmeca + Tflua),
    NEWTON=_F(MATRICE="TANGENTE", REAC_ITER=1),
    CONVERGENCE=_F(RESI_GLOB_RELA=ResiGlob, ITER_GLOB_MAXI=20),
)

# Calcul pour vérification avec modèle MFRONT
RESUF_BBUR = STAT_NON_LINE(
    MODELE=MOMECA,
    CHAM_MATER=CHMATF_BBUR,
    EXCIT=(_F(CHARGE=CLMECA), _F(CHARGE=CHMECA, FONC_MULT=FCT)),
    COMPORTEMENT=_F(RELATION="BETON_BURGER", RESI_INTE=1.0e-14, TOUT="OUI"),
    ETAT_INIT=_F(SIGM=CHSIG, DEPL=CHDEP, VARI=CHVARIF),
    INCREMENT=_F(LIST_INST=L_INST_BBUR, INST_INIT=Tmeca, INST_FIN=Tmeca + Tflua),
    NEWTON=_F(MATRICE="TANGENTE", REAC_ITER=1),
    CONVERGENCE=_F(RESI_GLOB_RELA=ResiGlob, ITER_GLOB_MAXI=20),
)

# Calcul des déformations
RESUF_BRAG = CALC_CHAMP(reuse=RESUF_BRAG, RESULTAT=RESUF_BRAG, DEFORMATION=("EPSI_ELGA"))
RESUF_BBUR = CALC_CHAMP(reuse=RESUF_BBUR, RESULTAT=RESUF_BBUR, DEFORMATION=("EPSI_ELGA"))

# Calcul des fonctions donnant contraintes et déformations
SIXX_BRAG = RECU_FONCTION(
    RESULTAT=RESUF_BRAG,
    NOM_CHAM="SIEF_ELGA",
    NOM_CMP="SIXX",
    GROUP_MA="G3D",
    POINT=8,
    NOM_RESU="SIXX",
)
SIYY_BRAG = RECU_FONCTION(
    RESULTAT=RESUF_BRAG,
    NOM_CHAM="SIEF_ELGA",
    NOM_CMP="SIYY",
    GROUP_MA="G3D",
    POINT=8,
    NOM_RESU="SIYY",
)
SIZZ_BRAG = RECU_FONCTION(
    RESULTAT=RESUF_BRAG,
    NOM_CHAM="SIEF_ELGA",
    NOM_CMP="SIZZ",
    GROUP_MA="G3D",
    POINT=8,
    NOM_RESU="SIZZ",
)
EPXX_BRAG = RECU_FONCTION(
    RESULTAT=RESUF_BRAG,
    NOM_CHAM="EPSI_ELGA",
    NOM_CMP="EPXX",
    GROUP_MA="G3D",
    POINT=8,
    NOM_RESU="EPXX",
)
EPYY_BRAG = RECU_FONCTION(
    RESULTAT=RESUF_BRAG,
    NOM_CHAM="EPSI_ELGA",
    NOM_CMP="EPYY",
    GROUP_MA="G3D",
    POINT=8,
    NOM_RESU="EPYY",
)
EPZZ_BRAG = RECU_FONCTION(
    RESULTAT=RESUF_BRAG,
    NOM_CHAM="EPSI_ELGA",
    NOM_CMP="EPZZ",
    GROUP_MA="G3D",
    POINT=8,
    NOM_RESU="EPZZ",
)

SIXX_BBUR = RECU_FONCTION(
    RESULTAT=RESUF_BBUR,
    NOM_CHAM="SIEF_ELGA",
    NOM_CMP="SIXX",
    GROUP_MA="G3D",
    POINT=8,
    NOM_RESU="SIXX",
)
SIYY_BBUR = RECU_FONCTION(
    RESULTAT=RESUF_BBUR,
    NOM_CHAM="SIEF_ELGA",
    NOM_CMP="SIYY",
    GROUP_MA="G3D",
    POINT=8,
    NOM_RESU="SIYY",
)
SIZZ_BBUR = RECU_FONCTION(
    RESULTAT=RESUF_BBUR,
    NOM_CHAM="SIEF_ELGA",
    NOM_CMP="SIZZ",
    GROUP_MA="G3D",
    POINT=8,
    NOM_RESU="SIZZ",
)
EPXX_BBUR = RECU_FONCTION(
    RESULTAT=RESUF_BBUR,
    NOM_CHAM="EPSI_ELGA",
    NOM_CMP="EPXX",
    GROUP_MA="G3D",
    POINT=8,
    NOM_RESU="EPXX",
)
EPYY_BBUR = RECU_FONCTION(
    RESULTAT=RESUF_BBUR,
    NOM_CHAM="EPSI_ELGA",
    NOM_CMP="EPYY",
    GROUP_MA="G3D",
    POINT=8,
    NOM_RESU="EPYY",
)
EPZZ_BBUR = RECU_FONCTION(
    RESULTAT=RESUF_BBUR,
    NOM_CHAM="EPSI_ELGA",
    NOM_CMP="EPZZ",
    GROUP_MA="G3D",
    POINT=8,
    NOM_RESU="EPZZ",
)

# Temps pour la vérification
t = np.linspace(0, 34, 35)

# Réponse précédente sizz BETON_RAG
val_sizz_BRAG_prec = [
    -36187984.804000012576580047607421875,
    -36187984.80278612673282623291015625,
    -36187984.803085796535015106201171875,
    -36187984.80329811573028564453125,
    -36187984.8034534454345703125,
    -36187984.803568303585052490234375,
    -36187984.803653657436370849609375,
    -36187984.803717069327831268310546875,
    -36187984.803764283657073974609375,
    -36187984.8037993907928466796875,
    -36187984.803825534880161285400390625,
    -36187984.800683833658695220947265625,
    -36187984.800993330776691436767578125,
    -36187984.801223672926425933837890625,
    -36187984.801395200192928314208984375,
    -36187984.80152285099029541015625,
    -36187984.801617987453937530517578125,
    -36187984.801688812673091888427734375,
    -36187984.80174167454242706298828125,
    -36187984.80178105831146240234375,
# ... 15 like lines cut
]

# Réponse précédente sixx BETON_RAG
val_sixx_BRAG_prec = [
    -12062661.6013333387672901153564453125,
    -12807530.24553891085088253021240234375,
    -11566460.25497415848076343536376953125,
    -10207334.77649257145822048187255859375,
    -9097054.8375330679118633270263671875,
    -8255196.997917667962610721588134765625,
    -7633550.595992336980998516082763671875,
    -7180697.844789736904203891754150390625,
    -6854534.82573973946273326873779296875,
    -6622785.4065448381006717681884765625,
    -6461203.050040376372635364532470703125,
    -6351692.80091182701289653778076171875,
    -6280780.283135564066469669342041015625,
    -6238439.52668366767466068267822265625,
    -6217212.714683094061911106109619140625,
    -6211553.27179341204464435577392578125,
    -6217336.64624603278934955596923828125,
    -6231496.2274738140404224395751953125,
    -6251752.453381882049143314361572265625,
    -6276411.270110053010284900665283203125,
# ... 15 like lines cut
]

# Réponse précédente siyy BETON_RAG
val_siyy_BRAG_prec = [
    -12062661.60133333690464496612548828125,
    -12807530.24553891085088253021240234375,
    -11566460.25497415848076343536376953125,
    -10207334.77649257145822048187255859375,
    -9097054.8375330679118633270263671875,
    -8255196.997917667962610721588134765625,
    -7633550.595992336980998516082763671875,
    -7180697.844789736904203891754150390625,
    -6854534.82573973946273326873779296875,
    -6622785.4065448381006717681884765625,
    -6461203.050040376372635364532470703125,
    -6351692.80091182701289653778076171875,
    -6280780.283135564066469669342041015625,
    -6238439.52668366767466068267822265625,
    -6217212.714683094061911106109619140625,
    -6211553.27179341204464435577392578125,
    -6217336.64624603278934955596923828125,
    -6231496.2274738140404224395751953125,
    -6251752.453381882049143314361572265625,
    -6276411.270110053010284900665283203125,
# ... 15 like lines cut
]

# Réponse précédente epzz BETON_RAG
val_epzz_BRAG_prec = [
    -0.000942395437604166721738685463805040853912942111492156982421875,
    -0.00172688204061092229028850919547721787239424884319305419921875,
    -0.002308582969206378343596242075363988988101482391357421875,
    -0.0027515048817268092894161579664569217129610478878021240234375,
    -0.0030941726081815108632955269030162526178173720836639404296875,
    -0.00336299411546474129319772572443980607204139232635498046875,
    -0.003577057701022228787535173211153960437513887882232666015625,
    -0.0037504260183074569594274816353163259918801486492156982421875,
    -0.0038935268784552243791219350299570578499697148799896240234375,
    -0.00401410969390860773720053344959524110890924930572509765625,
    -0.0041179376447468170330257208888724562712013721466064453125,
    -0.004209297818077569093564438418297868338413536548614501953125,
    -0.004291379541078418728694554573621644522063434123992919921875,
    -0.004366555549146242630464964662451166077516973018646240234375,
    -0.00443659109116075096868048177611854043789207935333251953125,
    -0.004502799476654378331430539361690534860827028751373291015625,
    -0.004566157792013666831543172719420908833853900432586669921875,
    -0.004627392987417236654146268648446493898518383502960205078125,
    -0.0046870459216695158077836680377004086039960384368896484375,
    -0.004745519008832499961714201930362833081744611263275146484375,
# ... 15 like lines cut
]

# Réponse précédente sizz BETON_BÜRGER
val_sizz_BBUR_prec = [
    -36187984.804000012576580047607421875,
    -36187984.80400000512599945068359375,
    -36187984.80399997532367706298828125,
    -36187984.80399997532367706298828125,
    -36187984.803999997675418853759765625,
    -36187984.803999982774257659912109375,
    -36187984.803999982774257659912109375,
    -36187984.80399997532367706298828125,
    -36187984.8039999902248382568359375,
    -36187984.803999960422515869140625,
    -36187984.80399997532367706298828125,
    -36187984.80400000512599945068359375,
    -36187984.803999997675418853759765625,
    -36187984.80400000512599945068359375,
    -36187984.80400002002716064453125,
    -36187984.8039999902248382568359375,
    -36187984.8039999902248382568359375,
    -36187984.8039999902248382568359375,
    -36187984.8039999902248382568359375,
    -36187984.803999982774257659912109375,
# ... 15 like lines cut
]

# Réponse précédente sixx BETON_BÜRGER
val_sixx_BBUR_prec = [
    -12062661.6013333387672901153564453125,
    -12791965.88865934498608112335205078125,
    -11565790.2823280207812786102294921875,
    -10214962.170934922993183135986328125,
    -9107372.506015338003635406494140625,
    -8265624.695773134939372539520263671875,
    -7643090.8820687644183635711669921875,
    -7189031.7913581766188144683837890625,
    -6861624.83517347835004329681396484375,
    -6628710.94690813310444355010986328125,
    -6466089.83522298373281955718994140625,
    -6355679.820338667370378971099853515625,
    -6284003.56883988715708255767822265625,
    -6241024.231796803884208202362060546875,
    -6219269.68788575194776058197021484375,
    -6213178.16859120689332485198974609375,
    -6218610.45067070238292217254638671875,
    -6232486.506141184829175472259521484375,
    -6252514.929074226878583431243896484375,
    -6276991.46829777397215366363525390625,
# ... 15 like lines cut
]

# Réponse précédente siyy BETON_BÜRGER
val_siyy_BBUR_prec = [
    -12062661.60133333690464496612548828125,
    -12791965.88865934498608112335205078125,
    -11565790.2823280207812786102294921875,
    -10214962.17093492485582828521728515625,
    -9107372.506015338003635406494140625,
    -8265624.6957731358706951141357421875,
    -7643090.882068765349686145782470703125,
    -7189031.7913581766188144683837890625,
    -6861624.83517347835004329681396484375,
    -6628710.94690813310444355010986328125,
    -6466089.83522298373281955718994140625,
    -6355679.820338667370378971099853515625,
    -6284003.5688398890197277069091796875,
    -6241024.2317968048155307769775390625,
    -6219269.687885753810405731201171875,
    -6213178.168591208755970001220703125,
    -6218610.45067070424556732177734375,
    -6232486.506141185760498046875,
    -6252514.92907422967255115509033203125,
    -6276991.46829777769744396209716796875,
# ... 15 like lines cut
]

# Réponse précédente epzz BETON_BÜRGER
val_epzz_BBUR_prec = [
    -0.000942395437604166721738685463805040853912942111492156982421875,
    -0.00172508228646965112995648183868979685939848423004150390625,
    -0.0023060924111758577224884358969347886159084737300872802734375,
    -0.0027487936736029124074054408310985309071838855743408203125,
    -0.0030915057726313669057838229292656251345761120319366455078125,
    -0.003360522469635813212762709412118056206963956356048583984375,
    -0.00357485609174672258614435804702225141227245330810546875,
    -0.003748519844079163838845847323000270989723503589630126953125,
    -0.0038919114278197024757444122400329433730803430080413818359375,
    -0.004012763510294080349094514303942560218274593353271484375,
    -0.004116831278282614449415266477672048495151102542877197265625,
    -0.0042083992804244595153928543140864348970353603363037109375,
    -0.004290657518762639420495386133325155242346227169036865234375,
    -0.0043659811477045652738926406755126663483679294586181640625,
    -0.004436138645091565295419666625775789725594222545623779296875,
    -0.00450244678757201650942665338561710086651146411895751953125,
    -0.004565886033987506288644997454184704110957682132720947265625,
    -0.004627186434015518982920678325854169088415801525115966796875,
    -0.004686891592056627135753910096127583528868854045867919921875,
    -0.00474540629216434022008552773286282899789512157440185546875,
# ... 15 like lines cut
]

# Valeurs calculées pour la solution semi-analytique
# On ne met pas la fonction complète parce qu'elle est trop longue
# Attention : le premier terme doit être recalculé par la limite de p*laplace(p) en +oo
# car sympy ne donne pas une très bonne approximation en t = 0+
val_epzz_ANALY = [
    -0.000942395,
    -0.00172657,
    -0.00230851,
    -0.00275156,
    -0.00309429,
    -0.00336311,
    -0.00357722,
    -0.00375055,
    -0.00389364,
    -0.0040142,
    -0.00411803,
    -0.00420938,
    -0.00429145,
    -0.00436662,
    -0.00443665,
    -0.00450285,
    -0.0045662,
    -0.00462744,
    -0.00468709,
    -0.00474556,
# ... 15 like lines cut
]

val_epzz_ANALY = np.array(val_epzz_ANALY)
val_sixx_ANALY = analy_sixx(t)

VALS_SIZZ_BRAG = [
    _F(
        FONCTION=SIZZ_BRAG,
        NOM_PARA="INST",
        CRITERE="RELATIF",
        REFERENCE="ANALYTIQUE",
        VALE_PARA=t[i] + Tmeca,
        VALE_CALC=val_sizz_BRAG_prec[i],
        VALE_REFE=-1.0 * pres,
    )
    for i in range(len(t))
]

VALS_SIXX_BRAG = [
    _F(
        FONCTION=SIXX_BRAG,
        NOM_PARA="INST",
        CRITERE="RELATIF",
        REFERENCE="ANALYTIQUE",
        VALE_PARA=t[i] + Tmeca,
        VALE_CALC=val_sixx_BRAG_prec[i],
        VALE_REFE=val_sixx_ANALY[i],
    )
    for i in range(len(t))
]

VALS_SIYY_BRAG = [
    _F(
        FONCTION=SIYY_BRAG,
        NOM_PARA="INST",
        CRITERE="RELATIF",
        REFERENCE="ANALYTIQUE",
        VALE_PARA=t[i] + Tmeca,
        VALE_CALC=val_siyy_BRAG_prec[i],
        VALE_REFE=val_sixx_ANALY[i],
    )
    for i in range(len(t))
]

VALS_EPZZ_BRAG = [
    _F(
        FONCTION=EPZZ_BRAG,
        NOM_PARA="INST",
        CRITERE="RELATIF",
        REFERENCE="ANALYTIQUE",
        VALE_PARA=t[i] + Tmeca,
        VALE_CALC=val_epzz_BRAG_prec[i],
        VALE_REFE=val_epzz_ANALY[i],
    )
    for i in range(len(t))
]

# Note : il est nécessaire de mettre une précision plus laxiste pour faire passer Beton_Burger sans diviser le pas de temps
VALS_SIZZ_BBUR = [
    _F(
        FONCTION=SIZZ_BBUR,
        NOM_PARA="INST",
        CRITERE="RELATIF",
        REFERENCE="ANALYTIQUE",
        VALE_PARA=t[i] + Tmeca,
        VALE_CALC=val_sizz_BBUR_prec[i],
        VALE_REFE=-1.0 * pres,
    )
    for i in range(len(t))
]

VALS_SIXX_BBUR = [
    _F(
        FONCTION=SIXX_BBUR,
        NOM_PARA="INST",
        CRITERE="RELATIF",
        REFERENCE="ANALYTIQUE",
        VALE_PARA=t[i] + Tmeca,
        VALE_CALC=val_sixx_BBUR_prec[i],
        VALE_REFE=val_sixx_ANALY[i],
        PRECISION=5.0e-3,
    )
    for i in range(len(t))
]

VALS_SIYY_BBUR = [
    _F(
        FONCTION=SIYY_BBUR,
        NOM_PARA="INST",
        CRITERE="RELATIF",
        REFERENCE="ANALYTIQUE",
        VALE_PARA=t[i] + Tmeca,
        VALE_CALC=val_siyy_BBUR_prec[i],
        VALE_REFE=val_sixx_ANALY[i],
        PRECISION=5.0e-3,
    )
    for i in range(len(t))
]

VALS_EPZZ_BBUR = [
    _F(
        FONCTION=EPZZ_BBUR,
        NOM_PARA="INST",
        CRITERE="RELATIF",
        REFERENCE="ANALYTIQUE",
        VALE_PARA=t[i] + Tmeca,
        VALE_CALC=val_epzz_BBUR_prec[i],
        VALE_REFE=val_epzz_ANALY[i],
        PRECISION=5.0e-3,
    )
    for i in range(len(t))
]

VALS = (
    VALS_SIZZ_BRAG
    + VALS_SIXX_BRAG
    + VALS_SIYY_BRAG
    + VALS_EPZZ_BRAG
    + VALS_SIZZ_BBUR
    + VALS_SIXX_BBUR
    + VALS_SIYY_BBUR
    + VALS_EPZZ_BBUR
)

TEST_FONCTION(VALEUR=VALS)

FIN()
