# coding=utf-8
# --------------------------------------------------------------------
# Copyright (C) 1991 - 2026 - EDF - www.code-aster.org
# This file is part of code_aster.
#
# code_aster is free software: you can redistribute it and/or modify
# it under the terms of the GNU General Public License as published by
# the Free Software Foundation, either version 3 of the License, or
# (at your option) any later version.
#
# code_aster is distributed in the hope that it will be useful,
# but WITHOUT ANY WARRANTY; without even the implied warranty of
# MERCHANTABILITY or FITNESS FOR A PARTICULAR PURPOSE.  See the
# GNU General Public License for more details.
#
# You should have received a copy of the GNU General Public License
# along with code_aster.  If not, see <http://www.gnu.org/licenses/>.
# --------------------------------------------------------------------

#
#
# --------------------------------------------------------------------------------------------------
#
#                   LOI BETON_RAG
#
#   Vérification du comportement mécanique avec endommagement + puis fluage
#
# 7 : compression / Epsi  1d / Sigma diagonal / Contrainte imposée / Fluage non-linéaire
#
# --------------------------------------------------------------------------------------------------
DEBUT(CODE="OUI")
#
# !! !! !! !! !! !! !! !! !! !! !! !! !! !! !! !! !! !! !! !! !! !! !! !! !!
#
#   NE PAS UTILISER LES CARACTÉRISTIQUES MATÉRIAUX DE "BETON_RAG"
#   DE CE CAS TEST POUR FAIRE DES ÉTUDES.
#
#   ILS NE SONT PAS PHYSIQUES, ILS SERVENT À DE LA VÉRIFICATION MATHÉMATIQUE
#
# !! !! !! !! !! !! !! !! !! !! !! !! !! !! !! !! !! !! !! !! !! !! !! !! !!
#

import numpy as np

# Paramètres matériau
# /!\ Ne pas utiliser ces paramètres dans des études, ils ne sont pas physiques, et servent uniquement à de la vérification mathématique
E = 32000.0e06
nu = 0.25
k_r_sph = 8.0e09
eta_r_sph = 8.0e10
eta_i_sph = 1.0e12
k_r_dev = 1.2e10
eta_r_dev = 2.4e10
eta_i_dev = 5.0e11
kappa_i = 1.0e-4

# Pression imposée
pres = 36.187984804e06

# Paramètres temporels
Tmeca = 1.0
NbPasMeca = 5
Tflua = 34.0
NbPasFlua = 340

# Paramètres de convergence
ResiGlob = 1.0e-09
ResiInteRela = 1.0e-07

# Début étude Aster
MAIL = LIRE_MAILLAGE(FORMAT="ASTER")

MOMECA = AFFE_MODELE(MAILLAGE=MAIL, AFFE=_F(TOUT="OUI", PHENOMENE="MECANIQUE", MODELISATION="3D"))

MATMECA = DEFI_MATERIAU(
    ELAS=_F(E=E, NU=nu),
    BETON_RAG=_F(
        COMP_BETON="ENDO",
        ENDO_MC=1.95,
        ENDO_MT=2.00,
        ENDO_SIGUC=-35.00e06,
        ENDO_SIGUT=-3.18e06,
        ENDO_DRUPRA=0.15,
    ),
)

MATFLUA_BRAG = DEFI_MATERIAU(
    ELAS=_F(E=E, NU=nu),
    BETON_RAG=_F(
        COMP_BETON="ENDO_FLUA",
        # unités : Pa
        ENDO_MC=1.95,
        ENDO_MT=2.00,
        ENDO_SIGUC=-35.00e06,
        ENDO_SIGUT=-3.18e06,
        ENDO_DRUPRA=0.15,
        # Unités : Pa Jour
        FLUA_SPH_KR=k_r_sph,
        FLUA_SPH_NR=eta_r_sph,
        FLUA_SPH_NI=eta_i_sph,
        FLUA_DEV_KR=k_r_dev,
        FLUA_DEV_NR=eta_r_dev,
        FLUA_DEV_NI=eta_i_dev,
        FLUA_KAPPAI=kappa_i,
    ),
)

FONC1 = DEFI_FONCTION(
    NOM_PARA="SECH", PROL_DROITE="LINEAIRE", PROL_GAUCHE="LINEAIRE", VALE=(0.0, 0.0, 1.0, 1.0)
)

MATFLUA_BBUR = DEFI_MATERIAU(
    ELAS_FO=_F(
        E=DEFI_CONSTANTE(VALE=E),
        NU=DEFI_CONSTANTE(VALE=nu),
        TEMP_DEF_ALPHA=0.0,
        ALPHA=DEFI_CONSTANTE(VALE=0.0),
    ),
    BETON_DESORP=_F(FONC_DESORP=FONC1),
    BETON_BURGER=_F(
        YoungModulus=E,
        PoissonRatio=nu,
        K_RS=k_r_sph,
        ETA_RS=eta_r_sph,
        ETA_IS=eta_i_sph,
        K_RD=k_r_dev,
        ETA_RD=eta_r_dev,
        ETA_ID=eta_i_dev,
        KAPPA=kappa_i,
        QSR_K=0.0,
        ETA_FD=0.0,
        TEMP_0_C=20.0,
    ),
)
TEMP = CREA_CHAMP(
    OPERATION="AFFE",
    TYPE_CHAM="NOEU_TEMP_R",
    MAILLAGE=MAIL,
    AFFE=_F(TOUT="OUI", NOM_CMP="TEMP", VALE=20.0),
)

SECH = CREA_CHAMP(
    OPERATION="AFFE",
    TYPE_CHAM="NOEU_TEMP_R",
    MAILLAGE=MAIL,
    AFFE=_F(TOUT="OUI", NOM_CMP="SECH", VALE=1.0),
)

CHMATM = AFFE_MATERIAU(MAILLAGE=MAIL, AFFE=_F(TOUT="OUI", MATER=MATMECA))

CHMATF_BRAG = AFFE_MATERIAU(MAILLAGE=MAIL, AFFE=_F(TOUT="OUI", MATER=MATFLUA_BRAG))
CHMATF_BBUR = AFFE_MATERIAU(
    MAILLAGE=MAIL,
    AFFE=_F(TOUT="OUI", MATER=MATFLUA_BBUR),
    AFFE_VARC=(
        _F(TOUT="OUI", CHAM_GD=SECH, NOM_VARC="SECH", VALE_REF=1),
        _F(TOUT="OUI", CHAM_GD=TEMP, NOM_VARC="TEMP", VALE_REF=20),
    ),
    MODELE=MOMECA,
)

CLMECA = AFFE_CHAR_MECA(
    MODELE=MOMECA,
    DDL_IMPO=(
        _F(GROUP_MA="BAS", DZ=0.0),
        _F(GROUP_MA="COTEG", DY=0.0),
        _F(GROUP_MA="COTED", DY=0.0),
        _F(GROUP_MA="ARRIERE", DX=0.0),
        _F(GROUP_MA="AVANT", DX=0.0),
    ),
)

# Impose une contrainte
CHMECA = AFFE_CHAR_MECA(MODELE=MOMECA, PRES_REP=_F(GROUP_MA="HAUT", PRES=pres))
FCT = DEFI_FONCTION(NOM_PARA="INST", VALE=(0.0, 0.0, Tmeca, 1.0, 1000.0, 1.0))

L_INST = DEFI_LIST_REEL(
    DEBUT=0.0,
    INTERVALLE=(_F(JUSQU_A=Tmeca, NOMBRE=NbPasMeca), _F(JUSQU_A=Tmeca + Tflua, NOMBRE=NbPasFlua)),
)
L_INST_BBUR = DEFI_LIST_REEL(
    DEBUT=0.0,
    INTERVALLE=(
        _F(JUSQU_A=Tmeca, NOMBRE=NbPasMeca),
        _F(JUSQU_A=Tmeca + Tflua, NOMBRE=NbPasFlua * 4),
    ),
)

# La partie mécanique sans fluage pour stabilisation
RESU = STAT_NON_LINE(
    MODELE=MOMECA,
    CHAM_MATER=CHMATM,
    EXCIT=(_F(CHARGE=CLMECA), _F(CHARGE=CHMECA, FONC_MULT=FCT)),
    COMPORTEMENT=_F(RELATION="BETON_RAG"),
    INCREMENT=_F(LIST_INST=L_INST, INST_FIN=Tmeca),
    NEWTON=_F(MATRICE="TANGENTE", REAC_ITER=1),
    CONVERGENCE=_F(RESI_GLOB_RELA=ResiGlob, ITER_GLOB_MAXI=20),
)

# Préparation pour fluage Bürger (MFRONT)
CHSIG = CREA_CHAMP(
    TYPE_CHAM="ELGA_SIEF_R", OPERATION="EXTR", RESULTAT=RESU, NOM_CHAM="SIEF_ELGA", INST=Tmeca
)
CHDEP = CREA_CHAMP(
    TYPE_CHAM="NOEU_DEPL_R", OPERATION="EXTR", RESULTAT=RESU, NOM_CHAM="DEPL", INST=Tmeca
)
CHEPSI = CREA_CHAMP(
    TYPE_CHAM="ELGA_EPSI_R",
    OPERATION="EXTR",
    RESULTAT=CALC_CHAMP(RESULTAT=RESU, DEFORMATION=("EPSI_ELGA")),
    NOM_CHAM="EPSI_ELGA",
    INST=Tmeca,
)

CHVARI = CREA_CHAMP(
    OPERATION="ASSE",
    MODELE=MOMECA,
    TYPE_CHAM="ELGA_VARI_R",
    ASSE=_F(
        CHAM_GD=CHEPSI,
        TOUT="OUI",
        NOM_CMP=("EPXX", "EPYY", "EPZZ", "EPXY", "EPXZ", "EPYZ"),
        NOM_CMP_RESU=("V1", "V2", "V3", "V4", "V5", "V6"),
    ),
)
CHVARI2 = CREA_CHAMP(
    OPERATION="AFFE",
    MODELE=MOMECA,
    TYPE_CHAM="ELGA_VARI_R",
    PROL_ZERO="OUI",
    AFFE=(
        _F(
            TOUT="OUI",
            NOM_CMP=["V{}".format(i) for i in range(7, 35)],
            VALE=[0.0 for i in range(7, 35)],
        )
    ),
)
CHVARIF = CREA_CHAMP(
    OPERATION="ASSE",
    MODELE=MOMECA,
    TYPE_CHAM="ELGA_VARI_R",
    ASSE=(_F(TOUT="OUI", CHAM_GD=CHVARI2), _F(TOUT="OUI", CHAM_GD=CHVARI)),
)

# La partie fluage
RESUF_BRAG = STAT_NON_LINE(
    reuse=RESU,
    MODELE=MOMECA,
    CHAM_MATER=CHMATF_BRAG,
    ETAT_INIT=_F(EVOL_NOLI=RESU, INST=Tmeca),
    EXCIT=(_F(CHARGE=CLMECA), _F(CHARGE=CHMECA, FONC_MULT=FCT)),
    COMPORTEMENT=_F(RELATION="BETON_RAG", RESI_INTE=ResiInteRela),
    INCREMENT=_F(LIST_INST=L_INST, INST_FIN=Tmeca + Tflua),
    NEWTON=_F(MATRICE="TANGENTE", REAC_ITER=1),
    CONVERGENCE=_F(RESI_GLOB_RELA=ResiGlob, ITER_GLOB_MAXI=20),
)

# Calcul pour vérification avec modèle MFRONT
RESUF_BBUR = STAT_NON_LINE(
    MODELE=MOMECA,
    CHAM_MATER=CHMATF_BBUR,
    EXCIT=(_F(CHARGE=CLMECA), _F(CHARGE=CHMECA, FONC_MULT=FCT)),
    COMPORTEMENT=_F(RELATION="BETON_BURGER", RESI_INTE=1.0e-14, TOUT="OUI"),
    ETAT_INIT=_F(SIGM=CHSIG, DEPL=CHDEP, VARI=CHVARIF),
    INCREMENT=_F(LIST_INST=L_INST_BBUR, INST_INIT=Tmeca, INST_FIN=Tmeca + Tflua),
    NEWTON=_F(MATRICE="TANGENTE", REAC_ITER=1),
    CONVERGENCE=_F(RESI_GLOB_RELA=ResiGlob, ITER_GLOB_MAXI=20),
)

# Calcul des déformations
RESUF_BRAG = CALC_CHAMP(reuse=RESUF_BRAG, RESULTAT=RESUF_BRAG, DEFORMATION=("EPSI_ELGA"))
RESUF_BBUR = CALC_CHAMP(reuse=RESUF_BBUR, RESULTAT=RESUF_BBUR, DEFORMATION=("EPSI_ELGA"))

# Calcul des fonctions donnant contraintes et déformations
SIXX_BRAG = RECU_FONCTION(
    RESULTAT=RESUF_BRAG,
    NOM_CHAM="SIEF_ELGA",
    NOM_CMP="SIXX",
    GROUP_MA="G3D",
    POINT=8,
    NOM_RESU="SIXX",
)
SIYY_BRAG = RECU_FONCTION(
    RESULTAT=RESUF_BRAG,
    NOM_CHAM="SIEF_ELGA",
    NOM_CMP="SIYY",
    GROUP_MA="G3D",
    POINT=8,
    NOM_RESU="SIYY",
)
SIZZ_BRAG = RECU_FONCTION(
    RESULTAT=RESUF_BRAG,
    NOM_CHAM="SIEF_ELGA",
    NOM_CMP="SIZZ",
    GROUP_MA="G3D",
    POINT=8,
    NOM_RESU="SIZZ",
)
EPXX_BRAG = RECU_FONCTION(
    RESULTAT=RESUF_BRAG,
    NOM_CHAM="EPSI_ELGA",
    NOM_CMP="EPXX",
    GROUP_MA="G3D",
    POINT=8,
    NOM_RESU="EPXX",
)
EPYY_BRAG = RECU_FONCTION(
    RESULTAT=RESUF_BRAG,
    NOM_CHAM="EPSI_ELGA",
    NOM_CMP="EPYY",
    GROUP_MA="G3D",
    POINT=8,
    NOM_RESU="EPYY",
)
EPZZ_BRAG = RECU_FONCTION(
    RESULTAT=RESUF_BRAG,
    NOM_CHAM="EPSI_ELGA",
    NOM_CMP="EPZZ",
    GROUP_MA="G3D",
    POINT=8,
    NOM_RESU="EPZZ",
)

SIXX_BBUR = RECU_FONCTION(
    RESULTAT=RESUF_BBUR,
    NOM_CHAM="SIEF_ELGA",
    NOM_CMP="SIXX",
    GROUP_MA="G3D",
    POINT=8,
    NOM_RESU="SIXX",
)
SIYY_BBUR = RECU_FONCTION(
    RESULTAT=RESUF_BBUR,
    NOM_CHAM="SIEF_ELGA",
    NOM_CMP="SIYY",
    GROUP_MA="G3D",
    POINT=8,
    NOM_RESU="SIYY",
)
SIZZ_BBUR = RECU_FONCTION(
    RESULTAT=RESUF_BBUR,
    NOM_CHAM="SIEF_ELGA",
    NOM_CMP="SIZZ",
    GROUP_MA="G3D",
    POINT=8,
    NOM_RESU="SIZZ",
)
EPXX_BBUR = RECU_FONCTION(
    RESULTAT=RESUF_BBUR,
    NOM_CHAM="EPSI_ELGA",
    NOM_CMP="EPXX",
    GROUP_MA="G3D",
    POINT=8,
    NOM_RESU="EPXX",
)
EPYY_BBUR = RECU_FONCTION(
    RESULTAT=RESUF_BBUR,
    NOM_CHAM="EPSI_ELGA",
    NOM_CMP="EPYY",
    GROUP_MA="G3D",
    POINT=8,
    NOM_RESU="EPYY",
)
EPZZ_BBUR = RECU_FONCTION(
    RESULTAT=RESUF_BBUR,
    NOM_CHAM="EPSI_ELGA",
    NOM_CMP="EPZZ",
    GROUP_MA="G3D",
    POINT=8,
    NOM_RESU="EPZZ",
)

# Temporaire
# Récupérer les valeurs calculées si besoin pour évolution
val_sizz_BBUR, val_sixx_BBUR, val_siyy_BBUR, val_epzz_BBUR = [], [], [], []
val_sizz_BRAG, val_sixx_BRAG, val_siyy_BRAG, val_epzz_BRAG = [], [], [], []

for i in range(35):
    val_sizz_BRAG.append(SIZZ_BRAG(float(i) + Tmeca))
    val_sixx_BRAG.append(SIXX_BRAG(float(i) + Tmeca))
    val_siyy_BRAG.append(SIYY_BRAG(float(i) + Tmeca))
    val_epzz_BRAG.append(EPZZ_BRAG(float(i) + Tmeca))

    val_sizz_BBUR.append(SIZZ_BBUR(float(i) + Tmeca))
    val_sixx_BBUR.append(SIXX_BBUR(float(i) + Tmeca))
    val_siyy_BBUR.append(SIYY_BBUR(float(i) + Tmeca))
    val_epzz_BBUR.append(EPZZ_BBUR(float(i) + Tmeca))
# /Temporaire


# Temps pour la vérification
t = np.linspace(0, 34, 35)

# Réponse précédente sizz BETON_RAG
val_sizz_BRAG_prec = [
    -36187984.804000012576580047607421875,
    -36187984.802906982600688934326171875,
    -36187984.803202323615550994873046875,
    -36187984.803389914333820343017578125,
    -36187984.803523115813732147216796875,
    -36187984.803622789680957794189453125,
    -36187984.80369935929775238037109375,
    -36187984.803759105503559112548828125,
    -36187984.80380614101886749267578125,
    -36187984.800485260784626007080078125,
    -36187984.8011493384838104248046875,
    -36187984.801680743694305419921875,
    -36187984.802106969058513641357421875,
    -36187984.802449643611907958984375,
    -36187984.80272562801837921142578125,
    -36187984.802948273718357086181640625,
    -36187984.803128115832805633544921875,
    -36187984.803273715078830718994140625,
    -36187984.803391754627227783203125,
    -36187984.8034875690937042236328125,
# ... 15 like lines cut
]

# Réponse précédente sixx BETON_RAG
val_sixx_BRAG_prec = [
    -12062661.6013333387672901153564453125,
    -12467264.01009188406169414520263671875,
    -10545790.208954595029354095458984375,
    -8416588.454179205000400543212890625,
    -6548707.243353329598903656005859375,
    -5003698.63807563297450542449951171875,
    -3748656.68167940340936183929443359375,
    -2735266.01249552331864833831787109375,
    -1918764.444981597363948822021484375,
    -1261504.31890884600579738616943359375,
    -732716.882116727530956268310546875,
    -307489.55530249141156673431396484375,
    34284.72408219240605831146240234375,
    308816.7479496113955974578857421875,
    529171.269767604768276214599609375,
    705876.47036726586520671844482421875,
    847416.384535320103168487548828125,
    960627.98123067431151866912841796875,
    1051021.1299907080829143524169921875,
    1123036.36798173747956752777099609375,
# ... 15 like lines cut
]

# Réponse précédente siyy BETON_RAG
val_siyy_BRAG_prec = [
    -12062661.60133333690464496612548828125,
    -12467264.01009188406169414520263671875,
    -10545790.208954595029354095458984375,
    -8416588.454179205000400543212890625,
    -6548707.243353329598903656005859375,
    -5003698.63807563297450542449951171875,
    -3748656.68167940340936183929443359375,
    -2735266.01249552331864833831787109375,
    -1918764.444981597363948822021484375,
    -1261504.31890884600579738616943359375,
    -732716.882116727530956268310546875,
    -307489.55530249141156673431396484375,
    34284.72408219240605831146240234375,
    308816.7479496113955974578857421875,
    529171.269767604768276214599609375,
    705876.47036726586520671844482421875,
    847416.384535320103168487548828125,
    960627.98123067431151866912841796875,
    1051021.1299907080829143524169921875,
    1123036.36798173747956752777099609375,
# ... 15 like lines cut
]

# Réponse précédente epzz BETON_RAG
val_epzz_BRAG_prec = [
    -0.000942395437604166721738685463805040853912942111492156982421875,
    -0.0017357751249178362228098304598233880824409425258636474609375,
    -0.002344856265255392500923559140346696949563920497894287109375,
    -0.0028273787039743074160635938341101791593246161937713623046875,
    -0.003214296281728755942663777744883191189728677272796630859375,
    -0.003526204704396115018061319545950027531944215297698974609375,
    -0.00377838178826103189555940531363376067019999027252197265625,
    -0.00398269338688123954173025964564658352173864841461181640625,
    -0.004148530060220916894364595606248258263804018497467041015625,
    -0.0042833843134373085492772048610277124680578708648681640625,
    -0.004393258173356263084075035152409327565692365169525146484375,
    -0.004482970569993589837753944493670132942497730255126953125,
    -0.004556396214734344772556706715249674743972718715667724609375,
    -0.00461665390680031373360492352730943821370601654052734375,
    -0.004666256086442562012184254172098007984459400177001953125,
    -0.004707228128838006168954688490657645161263644695281982421875,
    -0.004741203767517555844879240112277329899370670318603515625,
    -0.00476950157106508128290744963351244223304092884063720703125,
    -0.0047931863209867385522411353804272948764264583587646484375,
    -0.00481311832395125462069618293980965972878038883209228515625,
# ... 15 like lines cut
]

# Réponse précédente sizz BETON_BÜRGER
val_sizz_BBUR_prec = [
    -36187984.804000012576580047607421875,
    -36187984.80400000512599945068359375,
    -36187984.80400002002716064453125,
    -36187984.80400002002716064453125,
    -36187984.80400003492832183837890625,
    -36187984.80400003492832183837890625,
    -36187984.80400002002716064453125,
    -36187984.80400000512599945068359375,
    -36187984.80400003492832183837890625,
    -36187984.804184652864933013916015625,
    -36187984.8041015565395355224609375,
    -36187984.804056994616985321044921875,
    -36187984.804032601416110992431640625,
    -36187984.804018951952457427978515625,
    -36187984.804011188447475433349609375,
    -36187984.804006747901439666748046875,
    -36187984.804004125297069549560546875,
    -36187984.804002560675144195556640625,
    -36187984.800003230571746826171875,
    -36187984.802857242524623870849609375,
# ... 15 like lines cut
]

# Réponse précédente sixx BETON_BÜRGER
val_sixx_BBUR_prec = [
    -12062661.6013333387672901153564453125,
    -12444089.1893574260175228118896484375,
    -10543447.83364069461822509765625,
    -8427428.8479245044291019439697265625,
    -6565144.98871324770152568817138671875,
    -5021843.54813685454428195953369140625,
    -3766720.961753956042230129241943359375,
    -2752431.6002142131328582763671875,
    -1934659.30868203379213809967041015625,
    -1275978.1619130633771419525146484375,
    -745740.26621421985328197479248046875,
    -319102.907422383315861225128173828125,
    24000.38005373068153858184814453125,
    299758.172491992823779582977294921875,
    521225.06552930735051631927490234375,
    698927.051632777787744998931884765625,
    841351.148178526200354099273681640625,
    955340.519295531325042247772216796875,
    1046413.07991909794509410858154296875,
    1119018.27291150391101837158203125,
# ... 15 like lines cut
]

# Réponse précédente siyy BETON_BÜRGER
val_siyy_BBUR_prec = [
    -12062661.60133333690464496612548828125,
    -12444089.1893574260175228118896484375,
    -10543447.83364069461822509765625,
    -8427428.8479245044291019439697265625,
    -6565144.98871324770152568817138671875,
    -5021843.54813685454428195953369140625,
    -3766720.961753956042230129241943359375,
    -2752431.6002142131328582763671875,
    -1934659.30868203379213809967041015625,
    -1275978.1619130633771419525146484375,
    -745740.26621421985328197479248046875,
    -319102.907422383315861225128173828125,
    24000.380053729750216007232666015625,
    299758.172491992823779582977294921875,
    521225.06552930735051631927490234375,
    698927.051632777787744998931884765625,
    841351.148178526200354099273681640625,
    955340.519295531325042247772216796875,
    1046413.07991909794509410858154296875,
    1119018.27291150391101837158203125,
# ... 15 like lines cut
]

# Réponse précédente epzz BETON_BÜRGER
val_epzz_BBUR_prec = [
    -0.000942395437604166721738685463805040853912942111492156982421875,
    -0.00173367893361760683386407766448655820568092167377471923828125,
    -0.00234189850696543688801654070630320347845554351806640625,
    -0.002823982191452046978941137211904788273386657238006591796875,
    -0.00321071727850306791463008693199299159459769725799560546875,
    -0.003522625209364188027250097690057373256422579288482666015625,
    -0.0037749267499594106080318400842088522040285170078277587890625,
    -0.003979442144471695592955473586016523768194019794464111328125,
    -0.004145527522756064543740794903214919031597673892974853515625,
    -0.004280650680391416378067770409643344464711844921112060546875,
    -0.004390796632300404504778423842026313650421798229217529296875,
    -0.0044807730860753347545966107645654119551181793212890625,
    -0.00455444775491501731290444610067424946464598178863525390625,
    -0.00461493545565468295255318054159943130798637866973876953125,
    -0.004664746754998695503491301650456080096773803234100341796875,
    -0.004705906593541495618049363969248588546179234981536865234375,
    -0.00474004922023436338351931595980204292573034763336181640625,
    -0.00476849431624229956605542923853136016987264156341552734375,
    -0.004792308120203946086856916508622816763818264007568359375,
    -0.004812352568242978488599614905751877813600003719329833984375,
# ... 15 like lines cut
]


def analy_sixx(t):
    t = np.array(t)
    return (
        -9046996.20100002
        + 5551448.86556149 * np.exp(-1.37255183236978 * t)
        - 19341945.880022 * np.exp(-0.223200378543825 * t)
        + 10774831.6189123 * np.exp(-0.00928482612343169 * t)
    )


# Valeurs calculées pour la solution semi-analytique
# On ne met pas la fonction complète parce qu'elle est trop longue
val_epzz_ANALY = [
    -0.00094217,
    -0.00174596,
    -0.00237902,
    -0.00289229,
    -0.00331406,
    -0.00366356,
    -0.00395561,
    -0.00420175,
    -0.00441113,
    -0.00459111,
    -0.00474757,
    -0.00488516,
    -0.0050077,
    -0.00511814,
    -0.00521889,
    -0.0053119,
    -0.00539868,
    -0.00548047,
    -0.00555826,
    -0.00563283,
# ... 15 like lines cut
]

val_epzz_ANALY = np.array(val_epzz_ANALY)
val_sixx_ANALY = analy_sixx(t)

VALS_SIZZ_BRAG = [
    _F(
        FONCTION=SIZZ_BRAG,
        NOM_PARA="INST",
        CRITERE="RELATIF",
        REFERENCE="ANALYTIQUE",
        VALE_PARA=t[i] + Tmeca,
        VALE_CALC=val_sizz_BRAG_prec[i],
        VALE_REFE=-1.0 * pres,
    )
    for i in range(len(t))
]

VALS_SIXX_BRAG = [
    _F(
        FONCTION=SIXX_BRAG,
        NOM_PARA="INST",
        CRITERE="RELATIF",
        VALE_PARA=t[i] + Tmeca,
        VALE_CALC=val_sixx_BRAG_prec[i],
    )
    for i in range(len(t))
]

VALS_SIYY_BRAG = [
    _F(
        FONCTION=SIYY_BRAG,
        NOM_PARA="INST",
        CRITERE="RELATIF",
        VALE_PARA=t[i] + Tmeca,
        VALE_CALC=val_siyy_BRAG_prec[i],
    )
    for i in range(len(t))
]

VALS_EPZZ_BRAG = [
    _F(
        FONCTION=EPZZ_BRAG,
        NOM_PARA="INST",
        CRITERE="RELATIF",
        VALE_PARA=t[i] + Tmeca,
        VALE_CALC=val_epzz_BRAG_prec[i],
    )
    for i in range(len(t))
]

VALS_SIZZ_BBUR = [
    _F(
        FONCTION=SIZZ_BBUR,
        NOM_PARA="INST",
        CRITERE="RELATIF",
        REFERENCE="ANALYTIQUE",
        VALE_PARA=t[i] + Tmeca,
        VALE_CALC=val_sizz_BBUR_prec[i],
        VALE_REFE=-1.0 * pres,
    )
    for i in range(len(t))
]

VALS_SIXX_BBUR = [
    _F(
        FONCTION=SIXX_BBUR,
        NOM_PARA="INST",
        CRITERE="RELATIF",
        VALE_PARA=t[i] + Tmeca,
        VALE_CALC=val_sixx_BBUR_prec[i],
    )
    for i in range(len(t))
]

VALS_SIYY_BBUR = [
    _F(
        FONCTION=SIYY_BBUR,
        NOM_PARA="INST",
        CRITERE="RELATIF",
        VALE_PARA=t[i] + Tmeca,
        VALE_CALC=val_siyy_BBUR_prec[i],
    )
    for i in range(len(t))
]

VALS_EPZZ_BBUR = [
    _F(
        FONCTION=EPZZ_BBUR,
        NOM_PARA="INST",
        CRITERE="RELATIF",
        VALE_PARA=t[i] + Tmeca,
        VALE_CALC=val_epzz_BBUR_prec[i],
    )
    for i in range(len(t))
]

VALS = (
    VALS_SIZZ_BRAG
    + VALS_SIXX_BRAG
    + VALS_SIYY_BRAG
    + VALS_EPZZ_BRAG
    + VALS_SIZZ_BBUR
    + VALS_SIXX_BBUR
    + VALS_SIYY_BBUR
    + VALS_EPZZ_BBUR
)

TEST_FONCTION(VALEUR=VALS)

FIN()
