# coding=utf-8
# --------------------------------------------------------------------
# Copyright (C) 1991 - 2026 - EDF - www.code-aster.org
# This file is part of code_aster.
#
# code_aster is free software: you can redistribute it and/or modify
# it under the terms of the GNU General Public License as published by
# the Free Software Foundation, either version 3 of the License, or
# (at your option) any later version.
#
# code_aster is distributed in the hope that it will be useful,
# but WITHOUT ANY WARRANTY; without even the implied warranty of
# MERCHANTABILITY or FITNESS FOR A PARTICULAR PURPOSE.  See the
# GNU General Public License for more details.
#
# You should have received a copy of the GNU General Public License
# along with code_aster.  If not, see <http://www.gnu.org/licenses/>.
# --------------------------------------------------------------------

#
#
# --------------------------------------------------------------------------------------------------
#
#                   LOI BETON_RAG
#
#   Vérification du comportement mécanique avec endommagement + puis fluage
#
# 1 : compression / Sigma 1d / Epsi  diagonal / Contrainte imposée
#
# --------------------------------------------------------------------------------------------------
DEBUT(CODE="OUI")
#
# !! !! !! !! !! !! !! !! !! !! !! !! !! !! !! !! !! !! !! !! !! !! !! !! !!
#
#   NE PAS UTILISER LES CARACTÉRISTIQUES MATÉRIAUX DE "BETON_RAG"
#   DE CE CAS TEST POUR FAIRE DES ÉTUDES.
#
#   ILS NE SONT PAS PHYSIQUES, ILS SERVENT À DE LA VÉRIFICATION MATHÉMATIQUE
#
# !! !! !! !! !! !! !! !! !! !! !! !! !! !! !! !! !! !! !! !! !! !! !! !! !!
#
import numpy as np
from numpy import exp


def solution_analytique(
    t, sig, E, nu, eta_i_sph, k_r_sph, eta_r_sph, eta_i_dev, k_r_dev, eta_r_dev
):
    n = len(t)

    # Listes des déformations sous contrainte imposée uniaxiale
    epx = []
    epy = []
    epz = []

    # Modules élastiques sphérique et déviatorique
    E_sph = E / (1 - 2 * nu)
    E_dev = E / (1 + nu)

    # Pression et contraintes sixx_dev, siyy_dev, et sizz_dev (déviatoriques)
    p = sig / 3
    sigx = -sig / 3
    sigy = -sig / 3
    sigz = 2 * sig / 3
    for i in range(n):
        # Déformation sphérique : élastique + fluage
        ep = p / E_sph + p / eta_i_sph * t[i] - p / k_r_sph * (exp(-k_r_sph / eta_r_sph * t[i]) - 1)

        # Déformations déviatoriques : élastique + fluage
        ex = (
            sigx / E_dev
            + sigx / eta_i_dev * t[i]
            - sigx / k_r_dev * (exp(-k_r_dev / eta_r_dev * t[i]) - 1)
        )
        ey = (
            sigy / E_dev
            + sigy / eta_i_dev * t[i]
            - sigy / k_r_dev * (exp(-k_r_dev / eta_r_dev * t[i]) - 1)
        )
        ez = (
            sigz / E_dev
            + sigz / eta_i_dev * t[i]
            - sigz / k_r_dev * (exp(-k_r_dev / eta_r_dev * t[i]) - 1)
        )

        # Mise dans les listes
        epx.append(ep + ex)
        epy.append(ep + ey)
        epz.append(ep + ez)

    return epx, epy, epz


# Paramètres matériau
# /!\ Ne pas utiliser ces paramètres dans des études, ils ne sont pas physiques, et servent uniquement à de la vérification mathématique
E = 32000.0e06
nu = 0.25
k_r_sph = 8.0e09
eta_r_sph = 8.0e10
eta_i_sph = 1.0e12
k_r_dev = 1.2e10
eta_r_dev = 2.4e10
eta_i_dev = 5.0e11
kappa_i = 0.0

# Pression imposée
pres = 28.278256400e06

# Paramètres temporels
Tmeca = 1.0
NbPasMeca = 5
Tflua = 34.0
NbPasFlua = 340

# Paramètres de convergence
ResiGlob = 1.0e-09
ResiInteRela = 1.0e-07

# Début étude Aster
MAIL = LIRE_MAILLAGE(FORMAT="ASTER")

MOMECA = AFFE_MODELE(MAILLAGE=MAIL, AFFE=_F(TOUT="OUI", PHENOMENE="MECANIQUE", MODELISATION="3D"))

MATMECA = DEFI_MATERIAU(
    ELAS=_F(E=E, NU=nu),
    BETON_RAG=_F(
        COMP_BETON="ENDO",
        ENDO_MC=1.95,
        ENDO_MT=2.00,
        ENDO_SIGUC=-35.00e06,
        ENDO_SIGUT=-3.18e06,
        ENDO_DRUPRA=0.15,
    ),
)

MATFLUA_BRAG = DEFI_MATERIAU(
    ELAS=_F(E=E, NU=nu),
    BETON_RAG=_F(
        COMP_BETON="ENDO_FLUA",
        # unités : Pa
        ENDO_MC=1.95,
        ENDO_MT=2.00,
        ENDO_SIGUC=-35.00e06,
        ENDO_SIGUT=-3.18e06,
        ENDO_DRUPRA=0.15,
        # Unités : Pa Jour
        FLUA_SPH_KR=k_r_sph,
        FLUA_SPH_NR=eta_r_sph,
        FLUA_SPH_NI=eta_i_sph,
        FLUA_DEV_KR=k_r_dev,
        FLUA_DEV_NR=eta_r_dev,
        FLUA_DEV_NI=eta_i_dev,
    ),
)

FONC1 = DEFI_FONCTION(
    NOM_PARA="SECH", PROL_DROITE="LINEAIRE", PROL_GAUCHE="LINEAIRE", VALE=(0.0, 0.0, 1.0, 1.0)
)

MATFLUA_BBUR = DEFI_MATERIAU(
    ELAS_FO=_F(
        E=DEFI_CONSTANTE(VALE=E),
        NU=DEFI_CONSTANTE(VALE=nu),
        TEMP_DEF_ALPHA=0.0,
        ALPHA=DEFI_CONSTANTE(VALE=0.0),
    ),
    BETON_DESORP=_F(FONC_DESORP=FONC1),
    BETON_BURGER=_F(
        YoungModulus=E,
        PoissonRatio=nu,
        K_RS=k_r_sph,
        ETA_RS=eta_r_sph,
        ETA_IS=eta_i_sph,
        K_RD=k_r_dev,
        ETA_RD=eta_r_dev,
        ETA_ID=eta_i_dev,
        KAPPA=5e14,
        QSR_K=0.0,
        ETA_FD=0.0,
        TEMP_0_C=20.0,
    ),
)
TEMP = CREA_CHAMP(
    OPERATION="AFFE",
    TYPE_CHAM="NOEU_TEMP_R",
    MAILLAGE=MAIL,
    AFFE=_F(TOUT="OUI", NOM_CMP="TEMP", VALE=20.0),
)

SECH = CREA_CHAMP(
    OPERATION="AFFE",
    TYPE_CHAM="NOEU_TEMP_R",
    MAILLAGE=MAIL,
    AFFE=_F(TOUT="OUI", NOM_CMP="SECH", VALE=1.0),
)

CHMATM = AFFE_MATERIAU(MAILLAGE=MAIL, AFFE=_F(TOUT="OUI", MATER=MATMECA))

CHMATF_BRAG = AFFE_MATERIAU(MAILLAGE=MAIL, AFFE=_F(TOUT="OUI", MATER=MATFLUA_BRAG))
CHMATF_BBUR = AFFE_MATERIAU(
    MAILLAGE=MAIL,
    AFFE=_F(TOUT="OUI", MATER=MATFLUA_BBUR),
    AFFE_VARC=(
        _F(TOUT="OUI", CHAM_GD=SECH, NOM_VARC="SECH", VALE_REF=1),
        _F(TOUT="OUI", CHAM_GD=TEMP, NOM_VARC="TEMP", VALE_REF=20),
    ),
    MODELE=MOMECA,
)

CLMECA = AFFE_CHAR_MECA(
    MODELE=MOMECA,
    DDL_IMPO=(
        _F(GROUP_MA="BAS", DZ=0.0),
        _F(GROUP_MA="COTEG", DY=0.0),
        _F(GROUP_MA="ARRIERE", DX=0.0),
    ),
)

# Impose une contrainte
CHMECA = AFFE_CHAR_MECA(MODELE=MOMECA, PRES_REP=_F(GROUP_MA="HAUT", PRES=pres))
FCT = DEFI_FONCTION(NOM_PARA="INST", VALE=(0.0, 0.0, Tmeca, 1.0, 1000.0, 1.0))

L_INST = DEFI_LIST_REEL(
    DEBUT=0.0,
    INTERVALLE=(_F(JUSQU_A=Tmeca, NOMBRE=NbPasMeca), _F(JUSQU_A=Tmeca + Tflua, NOMBRE=NbPasFlua)),
)
L_INST_BBUR = DEFI_LIST_REEL(
    DEBUT=0.0,
    INTERVALLE=(
        _F(JUSQU_A=Tmeca, NOMBRE=NbPasMeca),
        _F(JUSQU_A=Tmeca + Tflua, NOMBRE=NbPasFlua * 4),
    ),
)

# La partie mécanique sans fluage pour stabilisation
RESU = STAT_NON_LINE(
    MODELE=MOMECA,
    CHAM_MATER=CHMATM,
    EXCIT=(_F(CHARGE=CLMECA), _F(CHARGE=CHMECA, FONC_MULT=FCT)),
    COMPORTEMENT=_F(RELATION="BETON_RAG"),
    INCREMENT=_F(LIST_INST=L_INST, INST_FIN=Tmeca),
    NEWTON=_F(MATRICE="TANGENTE", REAC_ITER=1),
    CONVERGENCE=_F(RESI_GLOB_RELA=ResiGlob, ITER_GLOB_MAXI=20),
)

# Préparation pour fluage Bürger (MFRONT)
CHSIG = CREA_CHAMP(
    TYPE_CHAM="ELGA_SIEF_R", OPERATION="EXTR", RESULTAT=RESU, NOM_CHAM="SIEF_ELGA", INST=Tmeca
)
CHDEP = CREA_CHAMP(
    TYPE_CHAM="NOEU_DEPL_R", OPERATION="EXTR", RESULTAT=RESU, NOM_CHAM="DEPL", INST=Tmeca
)
CHEPSI = CREA_CHAMP(
    TYPE_CHAM="ELGA_EPSI_R",
    OPERATION="EXTR",
    RESULTAT=CALC_CHAMP(RESULTAT=RESU, DEFORMATION=("EPSI_ELGA")),
    NOM_CHAM="EPSI_ELGA",
    INST=Tmeca,
)

CHVARI = CREA_CHAMP(
    OPERATION="ASSE",
    MODELE=MOMECA,
    TYPE_CHAM="ELGA_VARI_R",
    ASSE=_F(
        CHAM_GD=CHEPSI,
        TOUT="OUI",
        NOM_CMP=("EPXX", "EPYY", "EPZZ", "EPXY", "EPXZ", "EPYZ"),
        NOM_CMP_RESU=("V1", "V2", "V3", "V4", "V5", "V6"),
    ),
)
CHVARI2 = CREA_CHAMP(
    OPERATION="AFFE",
    MODELE=MOMECA,
    TYPE_CHAM="ELGA_VARI_R",
    PROL_ZERO="OUI",
    AFFE=(
        _F(
            TOUT="OUI",
            NOM_CMP=["V{}".format(i) for i in range(7, 35)],
            VALE=[0.0 for i in range(7, 35)],
        )
    ),
)
CHVARIF = CREA_CHAMP(
    OPERATION="ASSE",
    MODELE=MOMECA,
    TYPE_CHAM="ELGA_VARI_R",
    ASSE=(_F(TOUT="OUI", CHAM_GD=CHVARI2), _F(TOUT="OUI", CHAM_GD=CHVARI)),
)

# La partie fluage
RESUF_BRAG = STAT_NON_LINE(
    reuse=RESU,
    MODELE=MOMECA,
    CHAM_MATER=CHMATF_BRAG,
    ETAT_INIT=_F(EVOL_NOLI=RESU, INST=Tmeca),
    EXCIT=(_F(CHARGE=CLMECA), _F(CHARGE=CHMECA, FONC_MULT=FCT)),
    COMPORTEMENT=_F(RELATION="BETON_RAG", RESI_INTE=ResiInteRela),
    INCREMENT=_F(LIST_INST=L_INST, INST_FIN=Tmeca + Tflua),
    NEWTON=_F(MATRICE="TANGENTE", REAC_ITER=1),
    CONVERGENCE=_F(RESI_GLOB_RELA=ResiGlob, ITER_GLOB_MAXI=20),
)

# Calcul pour vérification avec modèle MFRONT
RESUF_BBUR = STAT_NON_LINE(
    MODELE=MOMECA,
    CHAM_MATER=CHMATF_BBUR,
    EXCIT=(_F(CHARGE=CLMECA), _F(CHARGE=CHMECA, FONC_MULT=FCT)),
    COMPORTEMENT=_F(RELATION="BETON_BURGER", RESI_INTE=1.0e-14, TOUT="OUI"),
    ETAT_INIT=_F(SIGM=CHSIG, DEPL=CHDEP, VARI=CHVARIF),
    INCREMENT=_F(LIST_INST=L_INST_BBUR, INST_INIT=Tmeca, INST_FIN=Tmeca + Tflua),
    NEWTON=_F(MATRICE="TANGENTE", REAC_ITER=1),
    CONVERGENCE=_F(RESI_GLOB_RELA=ResiGlob, ITER_GLOB_MAXI=20),
)

# Calcul des déformations
RESUF_BRAG = CALC_CHAMP(reuse=RESUF_BRAG, RESULTAT=RESUF_BRAG, DEFORMATION=("EPSI_ELGA"))
RESUF_BBUR = CALC_CHAMP(reuse=RESUF_BBUR, RESULTAT=RESUF_BBUR, DEFORMATION=("EPSI_ELGA"))

# Calcul des fonctions donnant contraintes et déformations
SIXX_BRAG = RECU_FONCTION(
    RESULTAT=RESUF_BRAG,
    NOM_CHAM="SIEF_ELGA",
    NOM_CMP="SIXX",
    GROUP_MA="G3D",
    POINT=8,
    NOM_RESU="SIXX",
)
SIYY_BRAG = RECU_FONCTION(
    RESULTAT=RESUF_BRAG,
    NOM_CHAM="SIEF_ELGA",
    NOM_CMP="SIYY",
    GROUP_MA="G3D",
    POINT=8,
    NOM_RESU="SIYY",
)
SIZZ_BRAG = RECU_FONCTION(
    RESULTAT=RESUF_BRAG,
    NOM_CHAM="SIEF_ELGA",
    NOM_CMP="SIZZ",
    GROUP_MA="G3D",
    POINT=8,
    NOM_RESU="SIZZ",
)
EPXX_BRAG = RECU_FONCTION(
    RESULTAT=RESUF_BRAG,
    NOM_CHAM="EPSI_ELGA",
    NOM_CMP="EPXX",
    GROUP_MA="G3D",
    POINT=8,
    NOM_RESU="EPXX",
)
EPYY_BRAG = RECU_FONCTION(
    RESULTAT=RESUF_BRAG,
    NOM_CHAM="EPSI_ELGA",
    NOM_CMP="EPYY",
    GROUP_MA="G3D",
    POINT=8,
    NOM_RESU="EPYY",
)
EPZZ_BRAG = RECU_FONCTION(
    RESULTAT=RESUF_BRAG,
    NOM_CHAM="EPSI_ELGA",
    NOM_CMP="EPZZ",
    GROUP_MA="G3D",
    POINT=8,
    NOM_RESU="EPZZ",
)

SIXX_BBUR = RECU_FONCTION(
    RESULTAT=RESUF_BBUR,
    NOM_CHAM="SIEF_ELGA",
    NOM_CMP="SIXX",
    GROUP_MA="G3D",
    POINT=8,
    NOM_RESU="SIXX",
)
SIYY_BBUR = RECU_FONCTION(
    RESULTAT=RESUF_BBUR,
    NOM_CHAM="SIEF_ELGA",
    NOM_CMP="SIYY",
    GROUP_MA="G3D",
    POINT=8,
    NOM_RESU="SIYY",
)
SIZZ_BBUR = RECU_FONCTION(
    RESULTAT=RESUF_BBUR,
    NOM_CHAM="SIEF_ELGA",
    NOM_CMP="SIZZ",
    GROUP_MA="G3D",
    POINT=8,
    NOM_RESU="SIZZ",
)
EPXX_BBUR = RECU_FONCTION(
    RESULTAT=RESUF_BBUR,
    NOM_CHAM="EPSI_ELGA",
    NOM_CMP="EPXX",
    GROUP_MA="G3D",
    POINT=8,
    NOM_RESU="EPXX",
)
EPYY_BBUR = RECU_FONCTION(
    RESULTAT=RESUF_BBUR,
    NOM_CHAM="EPSI_ELGA",
    NOM_CMP="EPYY",
    GROUP_MA="G3D",
    POINT=8,
    NOM_RESU="EPYY",
)
EPZZ_BBUR = RECU_FONCTION(
    RESULTAT=RESUF_BBUR,
    NOM_CHAM="EPSI_ELGA",
    NOM_CMP="EPZZ",
    GROUP_MA="G3D",
    POINT=8,
    NOM_RESU="EPZZ",
)

# Temps pour la vérification
t = np.linspace(0, 34, 35)

# Réponse précédente sizz BETON_RAG
val_sizz_BRAG_prec = [
    -28278256.399999998509883880615234375,
    -28278256.367768891155719757080078125,
    -28278256.378470860421657562255859375,
    -28278256.38506357371807098388671875,
    -28278256.1807515732944011688232421875,
    -28278256.2303395383059978485107421875,
    -28278256.262196771800518035888671875,
    -28278256.283128552138805389404296875,
    -28278256.2972794957458972930908203125,
    -28278256.3071786053478717803955078125,
    -28278256.31437313556671142578125,
    -28278256.319813765585422515869140625,
    -28278256.3240879885852336883544921875,
    -28278256.327561967074871063232421875,
    -28278256.3304666317999362945556640625,
    -28278256.332950048148632049560546875,
    -28278256.335109256207942962646484375,
    -28278256.337009735405445098876953125,
    -28278256.3386969752609729766845703125,
    -28278256.3402041010558605194091796875,
# ... 15 like lines cut
]

# Réponse précédente epxx BETON_RAG
val_epxx_BRAG_prec = [
    0.000220923878125000027220978249253846570354653522372245788574219,
    0.000427191921665187308940897503717337713169399648904800415039062,
    0.0005226038833851883065595433919270362821407616138458251953125,
    0.00055394451038456794973730001885314777609892189502716064453125,
    0.0005492937716285368511537345881379224010743200778961181640625,
    0.0005254129126899165398711932795094980974681675434112548828125,
    0.000492222549112606030073668872404368812567554414272308349609375,
    0.0004555169164809354069578528623196689295582473278045654296875,
    0.000418608256889951423507928440770342604082543402910232543945312,
    0.000383322382125629167355651549797812549513764679431915283203125,
    0.00035060080996457388367859575595275600790046155452728271484375,
    0.000320864396854591313150428799616520336712710559368133544921875,
    0.00029423243691470879652982706176089777727611362934112548828125,
    0.000270654220506984471809885928195171800325624644756317138671875,
    0.000249987614590377142925053943756097396544646471738815307617188,
    0.000232045620226938606543015675143237785960081964731216430664062,
    0.000216623608985025347143868468258176562812877818942070007324219,
    0.0002035149338567025963098178209520483505912125110626220703125,
    0.00019251957422265655699156194913257422740571200847625732421875,
    0.000183448633379901623234944918472422159538837149739265441894531,
# ... 15 like lines cut
]

# Réponse précédente epyy BETON_RAG
val_epyy_BRAG_prec = [
    0.00022092387812500005432603256139145742054097354412078857421875,
    0.00042719192166518725473078887944211601279675960540771484375,
    0.000522603883385188414979760640477479682886041700839996337890625,
    0.00055394451038456794973730001885314777609892189502716064453125,
    0.0005492937716285368511537345881379224010743200778961181640625,
    0.000525412912689916431450976030959054696722887456417083740234375,
    0.0004922225491126061384938861209548122133128345012664794921875,
    0.000455516916480935461167961486594890629930887371301651000976562,
    0.00041860825688995136929781981649512090370990335941314697265625,
    0.0003833223821256294926163032954491427517496049404144287109375,
    0.000350600809964573992098813004503199408645741641521453857421875,
    0.00032086439685459120473021155106607693596743047237396240234375,
    0.000294232436914708742319718437485676076903473585844039916992188,
    0.00027065422050698458023010317674561520107090473175048828125,
    0.000249987614590377034504836695205653995799366384744644165039062,
    0.000232045620226938416807635490179961834655841812491416931152344,
    0.000216623608985025076093325346882068060949677601456642150878906,
    0.000203514933856702487889600572401604949845932424068450927734375,
    0.000192519574222656611201670573407795927778352051973342895507812,
    0.00018344863337990137928945610923392450786195695400238037109375,
# ... 15 like lines cut
]

# Réponse précédente epzz BETON_RAG
val_epzz_BRAG_prec = [
    -0.000883695512500000108883912997015386281418614089488983154296875,
    -0.0016608657307235212725882167461577409994788467884063720703125,
    -0.002184317320516067535696169699122037854976952075958251953125,
    -0.0025506654007082349595869619207633149926550686359405517578125,
    -0.002818825717457872255533590788445508223958313465118408203125,
    -0.003024814350724281016014050038620553095825016498565673828125,
    -0.003190728828010126923164779810804247972555458545684814453125,
    -0.00333019921822827295876390252260534907691180706024169921875,
    -0.0034516973319147921904492815059484200901351869106292724609375,
    -0.0035605463337854488699296684472983542946167290210723876953125,
    -0.0036601417424485080572005291088544254307635128498077392578125,
    -0.0037526938311848935699022167256089232978411018848419189453125,
    -0.003839679521132967864038842975560328341089189052581787109375,
    -0.00392211789043037280244607956092295353300869464874267578125,
    -0.00400073854774017460822488345684178057126700878143310546875,
    -0.004076084893108548705409344137251537176780402660369873046875,
    -0.0041485777711728621941489336677477695047855377197265625,
    -0.004218554999822778615869989238262860453687608242034912109375,
    -0.00428629617650746856660770589542153174988925457000732421875,
    -0.004352038474435847292820511711397557519376277923583984375,
# ... 15 like lines cut
]

# Réponse précédente sizz BETON_BÜRGER
val_sizz_BBUR_prec = [
    -28278256.399999998509883880615234375,
    -28278256.399999998509883880615234375,
    -28278256.400000013411045074462890625,
    -28278256.3999999873340129852294921875,
    -28278256.40000002086162567138671875,
    -28278256.4000000022351741790771484375,
    -28278256.4000000171363353729248046875,
    -28278256.400000035762786865234375,
    -28278256.4000000096857547760009765625,
    -28278256.399999998509883880615234375,
    -28278256.4000000022351741790771484375,
    -28278256.4000000059604644775390625,
    -28278256.400000013411045074462890625,
    -28278256.400000013411045074462890625,
    -28278256.40000002086162567138671875,
    -28278256.40000002086162567138671875,
    -28278256.4000000171363353729248046875,
    -28278256.4000000022351741790771484375,
    -28278256.3999999947845935821533203125,
    -28278256.39999997615814208984375,
# ... 15 like lines cut
]

# Réponse précédente epxx BETON_BÜRGER
val_epxx_BBUR_prec = [
    0.000220923878125000027220978249253846570354653522372245788574219,
    0.000425950802106208302466594517454723245464265346527099609375,
    0.00052117289554007360623255618037319436552934348583221435546875,
    0.000552744879242374198557996578529127873480319976806640625,
    0.0005484478658195662999219610611589814652688801288604736328125,
    0.000524912737850425823414590720261685419245623052120208740234375,
    0.00049201223685103249831651606172044921549968421459197998046875,
    0.000455530715769956432055487471899368756567128002643585205078125,
    0.000418786232164038954746410059470917985890991985797882080078125,
    0.000383615442468715549077795667898271858575753867626190185546875,
    0.000350971006897342341357415307356859557330608367919921875,
    0.000321283413431468212184682897714083082973957061767578125,
    0.000294679627612284898534322774565907820942811667919158935546875,
    0.00027111477474533259186817435448801916209049522876739501953125,
    0.000250451037920777959139978507963064657815266400575637817382812,
    0.000232504557315496346216882050939034343173261731863021850585938,
    0.000217072965917105832568331780230153071897802874445915222167969,
    0.00020395123908996566630680291609678533859550952911376953125,
    0.000192940520007551022645814198241964732005726546049118041992188,
    0.000183852749226080401569877187384349781495984643697738647460938,
# ... 15 like lines cut
]

# Réponse précédente epyy BETON_BÜRGER
val_epyy_BBUR_prec = [
    0.00022092387812500005432603256139145742054097354412078857421875,
    0.000425950802106208302466594517454723245464265346527099609375,
    0.00052117289554007317255168718617142076254822313785552978515625,
    0.00055274487924237354803669308722646746900863945484161376953125,
    0.000548447865819565974661309315507651263033039867877960205078125,
    0.0005249127378504254981539389746103552170097827911376953125,
    0.00049201223685103206463564706751867561251856386661529541015625,
    0.000455530715769955727324075356321486651722807437181472778320312,
    0.000418786232164038304225106568168257581419311463832855224609375,
    0.0003836154424687152238171439222469416563399136066436767578125,
    0.000350971006897341853466437688879864253976847976446151733398438,
    0.000321283413431467507453270782136200978129636496305465698242188,
    0.0002946796276122845732736710289145776187069714069366455078125,
    0.000271114774745332212397413984561467259482014924287796020507812,
    0.000250451037920777200198457768109960852598305791616439819335938,
    0.000232504557315495262014709565434600335720460861921310424804688,
    0.000217072965917105182047028288927492667426122352480888366699219,
    0.000203951239089964988680445112656514083937508985400199890136719,
    0.0001929405200075504263346193312145260279066860675811767578125,
    0.000183852749226079859468790944632132777769584208726882934570312,
# ... 15 like lines cut
]

# Réponse précédente epzz BETON_BÜRGER
val_epzz_BBUR_prec = [
    -0.000883695512500000108883912997015386281418614089488983154296875,
    -0.00165800744321922496372911925988091752515174448490142822265625,
    -0.002180774945120600612213923596982567687518894672393798828125,
    -0.00254734284859872879558384539677717839367687702178955078125,
    -0.0028160202549645414749068805804199655540287494659423828125,
    -0.00302255471583882766306583533832963439635932445526123046875,
    -0.003188941227562812168183636885032683494500815868377685546875,
    -0.0033287841938711205426459915912573706009425222873687744140625,
    -0.00345056193533086787150754304320798837579786777496337890625,
    -0.0035596148692673113510254179203684543608687818050384521484375,
    -0.003659356962852655138773716458899798453785479068756103515625,
    -0.00375201444243768340858213861110925790853798389434814453125,
    -0.00383907672290949471272103465935288113541901111602783203125,
    -0.003921572106370292687405054721239139325916767120361328125,
    -0.00400023674007923303597156206024010316468775272369384765625,
    -0.00407561851602297568752941714365078951232135295867919921875,
    -0.004148141283236725894434382411191108985804021358489990234375,
    -0.004218144818972387362354670159447778132744133472442626953125,
    -0.00428590996534519881600022728207477484829723834991455078125,
    -0.00435167466274190110897546190926732379011809825897216796875,
# ... 15 like lines cut
]


val_epxx, val_epyy, val_epzz = solution_analytique(
    t, -1.0 * pres, E, nu, eta_i_sph, k_r_sph, eta_r_sph, eta_i_dev, k_r_dev, eta_r_dev
)

VALS_SIZZ_BRAG = [
    _F(
        FONCTION=SIZZ_BRAG,
        NOM_PARA="INST",
        CRITERE="RELATIF",
        REFERENCE="ANALYTIQUE",
        VALE_PARA=t[i] + Tmeca,
        VALE_CALC=val_sizz_BRAG_prec[i],
        VALE_REFE=-1.0 * pres,
    )
    for i in range(len(t))
]

VALS_EPXX_BRAG = [
    _F(
        FONCTION=EPXX_BRAG,
        NOM_PARA="INST",
        CRITERE="RELATIF",
        REFERENCE="ANALYTIQUE",
        VALE_PARA=t[i] + Tmeca,
        VALE_CALC=val_epxx_BRAG_prec[i],
        VALE_REFE=val_epxx[i],
    )
    for i in range(len(t))
]

VALS_EPYY_BRAG = [
    _F(
        FONCTION=EPYY_BRAG,
        NOM_PARA="INST",
        CRITERE="RELATIF",
        REFERENCE="ANALYTIQUE",
        VALE_PARA=t[i] + Tmeca,
        VALE_CALC=val_epyy_BRAG_prec[i],
        VALE_REFE=val_epyy[i],
    )
    for i in range(len(t))
]

VALS_EPZZ_BRAG = [
    _F(
        FONCTION=EPZZ_BRAG,
        NOM_PARA="INST",
        CRITERE="RELATIF",
        REFERENCE="ANALYTIQUE",
        VALE_PARA=t[i] + Tmeca,
        VALE_CALC=val_epzz_BRAG_prec[i],
        VALE_REFE=val_epzz[i],
    )
    for i in range(len(t))
]

# Note : il est nécessaire de mettre une précision plus laxiste pour faire passer Beton_Burger sans diviser le pas de temps
VALS_SIZZ_BBUR = [
    _F(
        FONCTION=SIZZ_BBUR,
        NOM_PARA="INST",
        CRITERE="RELATIF",
        REFERENCE="ANALYTIQUE",
        VALE_PARA=t[i] + Tmeca,
        VALE_CALC=val_sizz_BBUR_prec[i],
        VALE_REFE=-1.0 * pres,
    )
    for i in range(len(t))
]

VALS_EPXX_BBUR = [
    _F(
        FONCTION=EPXX_BBUR,
        NOM_PARA="INST",
        CRITERE="RELATIF",
        REFERENCE="ANALYTIQUE",
        VALE_PARA=t[i] + Tmeca,
        VALE_CALC=val_epxx_BBUR_prec[i],
        VALE_REFE=val_epxx[i],
        PRECISION=5.0e-3,
    )
    for i in range(len(t))
]

VALS_EPYY_BBUR = [
    _F(
        FONCTION=EPYY_BBUR,
        NOM_PARA="INST",
        CRITERE="RELATIF",
        REFERENCE="ANALYTIQUE",
        VALE_PARA=t[i] + Tmeca,
        VALE_CALC=val_epyy_BBUR_prec[i],
        VALE_REFE=val_epyy[i],
        PRECISION=5.0e-3,
    )
    for i in range(len(t))
]

VALS_EPZZ_BBUR = [
    _F(
        FONCTION=EPZZ_BBUR,
        NOM_PARA="INST",
        CRITERE="RELATIF",
        REFERENCE="ANALYTIQUE",
        VALE_PARA=t[i] + Tmeca,
        VALE_CALC=val_epzz_BBUR_prec[i],
        VALE_REFE=val_epzz[i],
        PRECISION=5.0e-3,
    )
    for i in range(len(t))
]


VALS = (
    VALS_SIZZ_BRAG
    + VALS_EPXX_BRAG
    + VALS_EPYY_BRAG
    + VALS_EPZZ_BRAG
    + VALS_SIZZ_BBUR
    + VALS_EPXX_BBUR
    + VALS_EPYY_BBUR
    + VALS_EPZZ_BBUR
)

TEST_FONCTION(VALEUR=VALS)

FIN()
