# coding=utf-8
# --------------------------------------------------------------------
# Copyright (C) 1991 - 2026 - EDF - www.code-aster.org
# This file is part of code_aster.
#
# code_aster is free software: you can redistribute it and/or modify
# it under the terms of the GNU General Public License as published by
# the Free Software Foundation, either version 3 of the License, or
# (at your option) any later version.
#
# code_aster is distributed in the hope that it will be useful,
# but WITHOUT ANY WARRANTY; without even the implied warranty of
# MERCHANTABILITY or FITNESS FOR A PARTICULAR PURPOSE.  See the
# GNU General Public License for more details.
#
# You should have received a copy of the GNU General Public License
# along with code_aster.  If not, see <http://www.gnu.org/licenses/>.
# --------------------------------------------------------------------

#
#
# --------------------------------------------------------------------------------------------------
#
#                   LOI BETON_RAG
#
#   Vérification du comportement mécanique avec endommagement + puis fluage
#
# 8 : compression / Epsi  1d / Sigma diagonal / Déplacement imposé / Fluage non-linéaire
#
# --------------------------------------------------------------------------------------------------
DEBUT(CODE="OUI")
#
# !! !! !! !! !! !! !! !! !! !! !! !! !! !! !! !! !! !! !! !! !! !! !! !! !!
#
#   NE PAS UTILISER LES CARACTÉRISTIQUES MATÉRIAUX DE "BETON_RAG"
#   DE CE CAS TEST POUR FAIRE DES ÉTUDES.
#
#   ILS NE SONT PAS PHYSIQUES, ILS SERVENT À DE LA VÉRIFICATION MATHÉMATIQUE
#
# !! !! !! !! !! !! !! !! !! !! !! !! !! !! !! !! !! !! !! !! !! !! !! !! !!
#
import numpy as np

# Paramètres matériau
# /!\ Ne pas utiliser ces paramètres dans des études, ils ne sont pas physiques, et servent uniquement à de la vérification mathématique
E = 32000.0e06
nu = 0.25
k_r_sph = 1.6e10  # k_r_sph est augmenté par rapport aux autres cas-tests pour éviter des contraintes positives en X et Y à cause du fluage et blocage en X/Y
eta_r_sph = 8.0e10
eta_i_sph = 1.0e12
k_r_dev = 1.2e10
eta_r_dev = 2.4e10
eta_i_dev = 5.0e11
kappa_i = 1.0e-4

# Déplacement imposé
dz = -1.0e-3

# Paramètres temporels
Tmeca = 1.0
NbPasMeca = 5
Tflua = 34.0
NbPasFlua = 340

# Paramètres de convergence
ResiGlob = 1.0e-09
ResiInteRela = 1.0e-07

# Début étude Aster
MAIL = LIRE_MAILLAGE(FORMAT="ASTER")

MOMECA = AFFE_MODELE(MAILLAGE=MAIL, AFFE=_F(TOUT="OUI", PHENOMENE="MECANIQUE", MODELISATION="3D"))

MATMECA = DEFI_MATERIAU(
    ELAS=_F(E=E, NU=nu),
    BETON_RAG=_F(
        COMP_BETON="ENDO",
        ENDO_MC=1.95,
        ENDO_MT=2.00,
        ENDO_SIGUC=-35.00e06,
        ENDO_SIGUT=-3.18e06,
        ENDO_DRUPRA=0.15,
    ),
)

MATFLUA_BRAG = DEFI_MATERIAU(
    ELAS=_F(E=E, NU=nu),
    BETON_RAG=_F(
        COMP_BETON="ENDO_FLUA",
        # unités : Pa
        ENDO_MC=1.95,
        ENDO_MT=2.00,
        ENDO_SIGUC=-35.00e06,
        ENDO_SIGUT=-3.18e06,
        ENDO_DRUPRA=0.15,
        # Unités : Pa Jour
        FLUA_SPH_KR=k_r_sph,
        FLUA_SPH_NR=eta_r_sph,
        FLUA_SPH_NI=eta_i_sph,
        FLUA_DEV_KR=k_r_dev,
        FLUA_DEV_NR=eta_r_dev,
        FLUA_DEV_NI=eta_i_dev,
        FLUA_KAPPAI=kappa_i,
    ),
)

FONC1 = DEFI_FONCTION(
    NOM_PARA="SECH", PROL_DROITE="LINEAIRE", PROL_GAUCHE="LINEAIRE", VALE=(0.0, 0.0, 1.0, 1.0)
)

MATFLUA_BBUR = DEFI_MATERIAU(
    ELAS_FO=_F(
        E=DEFI_CONSTANTE(VALE=E),
        NU=DEFI_CONSTANTE(VALE=nu),
        TEMP_DEF_ALPHA=0.0,
        ALPHA=DEFI_CONSTANTE(VALE=0.0),
    ),
    BETON_DESORP=_F(FONC_DESORP=FONC1),
    BETON_BURGER=_F(
        YoungModulus=E,
        PoissonRatio=nu,
        K_RS=k_r_sph,
        ETA_RS=eta_r_sph,
        ETA_IS=eta_i_sph,
        K_RD=k_r_dev,
        ETA_RD=eta_r_dev,
        ETA_ID=eta_i_dev,
        KAPPA=kappa_i,
        QSR_K=0.0,
        ETA_FD=0.0,
        TEMP_0_C=20.0,
    ),
)
TEMP = CREA_CHAMP(
    OPERATION="AFFE",
    TYPE_CHAM="NOEU_TEMP_R",
    MAILLAGE=MAIL,
    AFFE=_F(TOUT="OUI", NOM_CMP="TEMP", VALE=20.0),
)

SECH = CREA_CHAMP(
    OPERATION="AFFE",
    TYPE_CHAM="NOEU_TEMP_R",
    MAILLAGE=MAIL,
    AFFE=_F(TOUT="OUI", NOM_CMP="SECH", VALE=1.0),
)

CHMATM = AFFE_MATERIAU(MAILLAGE=MAIL, AFFE=_F(TOUT="OUI", MATER=MATMECA))

CHMATF_BRAG = AFFE_MATERIAU(MAILLAGE=MAIL, AFFE=_F(TOUT="OUI", MATER=MATFLUA_BRAG))
CHMATF_BBUR = AFFE_MATERIAU(
    MAILLAGE=MAIL,
    AFFE=_F(TOUT="OUI", MATER=MATFLUA_BBUR),
    AFFE_VARC=(
        _F(TOUT="OUI", CHAM_GD=SECH, NOM_VARC="SECH", VALE_REF=1),
        _F(TOUT="OUI", CHAM_GD=TEMP, NOM_VARC="TEMP", VALE_REF=20),
    ),
    MODELE=MOMECA,
)

CLMECA = AFFE_CHAR_MECA(
    MODELE=MOMECA,
    DDL_IMPO=(
        _F(GROUP_MA="BAS", DZ=0.0),
        _F(GROUP_MA="COTEG", DY=0.0),
        _F(GROUP_MA="COTED", DY=0.0),
        _F(GROUP_MA="ARRIERE", DX=0.0),
        _F(GROUP_MA="AVANT", DX=0.0),
    ),
)

# Impose un déplacement
CHMECA = AFFE_CHAR_MECA(MODELE=MOMECA, DDL_IMPO=_F(GROUP_MA="HAUT", DZ=dz))
FCT = DEFI_FONCTION(NOM_PARA="INST", VALE=(0.0, 0.0, Tmeca, 1.0, 1000.0, 1.0))

L_INST = DEFI_LIST_REEL(
    DEBUT=0.0,
    INTERVALLE=(_F(JUSQU_A=Tmeca, NOMBRE=NbPasMeca), _F(JUSQU_A=Tmeca + Tflua, NOMBRE=NbPasFlua)),
)
L_INST_BBUR = DEFI_LIST_REEL(
    DEBUT=0.0,
    INTERVALLE=(_F(JUSQU_A=Tmeca, NOMBRE=NbPasMeca), _F(JUSQU_A=Tmeca + Tflua, NOMBRE=NbPasFlua)),
)

# La partie mécanique sans fluage pour stabilisation
RESU = STAT_NON_LINE(
    MODELE=MOMECA,
    CHAM_MATER=CHMATM,
    EXCIT=(_F(CHARGE=CLMECA), _F(CHARGE=CHMECA, FONC_MULT=FCT)),
    COMPORTEMENT=_F(RELATION="BETON_RAG"),
    INCREMENT=_F(LIST_INST=L_INST, INST_FIN=Tmeca),
    NEWTON=_F(MATRICE="TANGENTE", REAC_ITER=1),
    CONVERGENCE=_F(RESI_GLOB_RELA=ResiGlob, ITER_GLOB_MAXI=20),
)

# Préparation pour fluage Bürger (MFRONT)
CHSIG = CREA_CHAMP(
    TYPE_CHAM="ELGA_SIEF_R", OPERATION="EXTR", RESULTAT=RESU, NOM_CHAM="SIEF_ELGA", INST=Tmeca
)
CHDEP = CREA_CHAMP(
    TYPE_CHAM="NOEU_DEPL_R", OPERATION="EXTR", RESULTAT=RESU, NOM_CHAM="DEPL", INST=Tmeca
)
CHEPSI = CREA_CHAMP(
    TYPE_CHAM="ELGA_EPSI_R",
    OPERATION="EXTR",
    RESULTAT=CALC_CHAMP(RESULTAT=RESU, DEFORMATION=("EPSI_ELGA")),
    NOM_CHAM="EPSI_ELGA",
    INST=Tmeca,
)

CHVARI = CREA_CHAMP(
    OPERATION="ASSE",
    MODELE=MOMECA,
    TYPE_CHAM="ELGA_VARI_R",
    ASSE=_F(
        CHAM_GD=CHEPSI,
        TOUT="OUI",
        NOM_CMP=("EPXX", "EPYY", "EPZZ", "EPXY", "EPXZ", "EPYZ"),
        NOM_CMP_RESU=("V1", "V2", "V3", "V4", "V5", "V6"),
    ),
)
CHVARI2 = CREA_CHAMP(
    OPERATION="AFFE",
    MODELE=MOMECA,
    TYPE_CHAM="ELGA_VARI_R",
    PROL_ZERO="OUI",
    AFFE=(
        _F(
            TOUT="OUI",
            NOM_CMP=["V{}".format(i) for i in range(7, 35)],
            VALE=[0.0 for i in range(7, 35)],
        )
    ),
)
CHVARIF = CREA_CHAMP(
    OPERATION="ASSE",
    MODELE=MOMECA,
    TYPE_CHAM="ELGA_VARI_R",
    ASSE=(_F(TOUT="OUI", CHAM_GD=CHVARI2), _F(TOUT="OUI", CHAM_GD=CHVARI)),
)

# La partie fluage
RESUF_BRAG = STAT_NON_LINE(
    reuse=RESU,
    MODELE=MOMECA,
    CHAM_MATER=CHMATF_BRAG,
    ETAT_INIT=_F(EVOL_NOLI=RESU, INST=Tmeca),
    EXCIT=(_F(CHARGE=CLMECA), _F(CHARGE=CHMECA, FONC_MULT=FCT)),
    COMPORTEMENT=_F(RELATION="BETON_RAG", RESI_INTE=ResiInteRela),
    INCREMENT=_F(LIST_INST=L_INST, INST_FIN=Tmeca + Tflua),
    NEWTON=_F(MATRICE="TANGENTE", REAC_ITER=1),
    CONVERGENCE=_F(RESI_GLOB_RELA=ResiGlob, ITER_GLOB_MAXI=20),
)

# Calcul pour vérification avec modèle MFRONT
RESUF_BBUR = STAT_NON_LINE(
    MODELE=MOMECA,
    CHAM_MATER=CHMATF_BBUR,
    EXCIT=(_F(CHARGE=CLMECA), _F(CHARGE=CHMECA, FONC_MULT=FCT)),
    COMPORTEMENT=_F(RELATION="BETON_BURGER", RESI_INTE=1.0e-14, TOUT="OUI"),
    ETAT_INIT=_F(SIGM=CHSIG, DEPL=CHDEP, VARI=CHVARIF),
    INCREMENT=_F(LIST_INST=L_INST_BBUR, INST_INIT=Tmeca, INST_FIN=Tmeca + Tflua),
    NEWTON=_F(MATRICE="TANGENTE", REAC_ITER=1),
    CONVERGENCE=_F(RESI_GLOB_RELA=ResiGlob, ITER_GLOB_MAXI=20),
)

# Calcul des déformations
RESUF_BRAG = CALC_CHAMP(reuse=RESUF_BRAG, RESULTAT=RESUF_BRAG, DEFORMATION=("EPSI_ELGA"))
RESUF_BBUR = CALC_CHAMP(reuse=RESUF_BBUR, RESULTAT=RESUF_BBUR, DEFORMATION=("EPSI_ELGA"))

# Calcul des fonctions donnant contraintes et déformations
SIXX_BRAG = RECU_FONCTION(
    RESULTAT=RESUF_BRAG,
    NOM_CHAM="SIEF_ELGA",
    NOM_CMP="SIXX",
    GROUP_MA="G3D",
    POINT=8,
    NOM_RESU="SIXX",
)
SIYY_BRAG = RECU_FONCTION(
    RESULTAT=RESUF_BRAG,
    NOM_CHAM="SIEF_ELGA",
    NOM_CMP="SIYY",
    GROUP_MA="G3D",
    POINT=8,
    NOM_RESU="SIYY",
)
SIZZ_BRAG = RECU_FONCTION(
    RESULTAT=RESUF_BRAG,
    NOM_CHAM="SIEF_ELGA",
    NOM_CMP="SIZZ",
    GROUP_MA="G3D",
    POINT=8,
    NOM_RESU="SIZZ",
)
EPXX_BRAG = RECU_FONCTION(
    RESULTAT=RESUF_BRAG,
    NOM_CHAM="EPSI_ELGA",
    NOM_CMP="EPXX",
    GROUP_MA="G3D",
    POINT=8,
    NOM_RESU="EPXX",
)
EPYY_BRAG = RECU_FONCTION(
    RESULTAT=RESUF_BRAG,
    NOM_CHAM="EPSI_ELGA",
    NOM_CMP="EPYY",
    GROUP_MA="G3D",
    POINT=8,
    NOM_RESU="EPYY",
)
EPZZ_BRAG = RECU_FONCTION(
    RESULTAT=RESUF_BRAG,
    NOM_CHAM="EPSI_ELGA",
    NOM_CMP="EPZZ",
    GROUP_MA="G3D",
    POINT=8,
    NOM_RESU="EPZZ",
)

SIXX_BBUR = RECU_FONCTION(
    RESULTAT=RESUF_BBUR,
    NOM_CHAM="SIEF_ELGA",
    NOM_CMP="SIXX",
    GROUP_MA="G3D",
    POINT=8,
    NOM_RESU="SIXX",
)
SIYY_BBUR = RECU_FONCTION(
    RESULTAT=RESUF_BBUR,
    NOM_CHAM="SIEF_ELGA",
    NOM_CMP="SIYY",
    GROUP_MA="G3D",
    POINT=8,
    NOM_RESU="SIYY",
)
SIZZ_BBUR = RECU_FONCTION(
    RESULTAT=RESUF_BBUR,
    NOM_CHAM="SIEF_ELGA",
    NOM_CMP="SIZZ",
    GROUP_MA="G3D",
    POINT=8,
    NOM_RESU="SIZZ",
)
EPXX_BBUR = RECU_FONCTION(
    RESULTAT=RESUF_BBUR,
    NOM_CHAM="EPSI_ELGA",
    NOM_CMP="EPXX",
    GROUP_MA="G3D",
    POINT=8,
    NOM_RESU="EPXX",
)
EPYY_BBUR = RECU_FONCTION(
    RESULTAT=RESUF_BBUR,
    NOM_CHAM="EPSI_ELGA",
    NOM_CMP="EPYY",
    GROUP_MA="G3D",
    POINT=8,
    NOM_RESU="EPYY",
)
EPZZ_BBUR = RECU_FONCTION(
    RESULTAT=RESUF_BBUR,
    NOM_CHAM="EPSI_ELGA",
    NOM_CMP="EPZZ",
    GROUP_MA="G3D",
    POINT=8,
    NOM_RESU="EPZZ",
)

# Temps pour la vérification
t = np.linspace(0, 34, 35)

# Réponse précédente sizz BETON_RAG
val_sizz_BRAG_prec = [
    -38400000.0,
    -17590012.2271964550018310546875,
    -11679406.44616223871707916259765625,
    -9838402.53283519856631755828857421875,
    -9207387.1463048346340656280517578125,
    -8961060.29437769018113613128662109375,
    -8843939.63246604986488819122314453125,
    -8772589.51474259607493877410888671875,
    -8718664.77602207846939563751220703125,
    -8672227.54317980445921421051025390625,
    -8629674.5300059802830219268798828125,
    -8589629.39693925715982913970947265625,
    -8551513.82650121487677097320556640625,
    -8515042.84261767379939556121826171875,
    -8480044.37404670380055904388427734375,
    -8446393.8326071910560131072998046875,
    -8413989.8285083062946796417236328125,
    -8382744.723519203253090381622314453125,
    -8352580.604993791319429874420166015625,
    -8323427.2906779013574123382568359375,
# ... 15 like lines cut
]

# Réponse précédente sixx BETON_RAG
val_sixx_BRAG_prec = [
    -12800000.00000000186264514923095703125,
    -6228961.6174985729157924652099609375,
    -3239993.351106964051723480224609375,
    -2041937.221474793739616870880126953125,
    -1588399.17469058255665004253387451171875,
    -1421841.5860967705957591533660888671875,
    -1361887.00888122455216944217681884765625,
    -1340688.578759275376796722412109375,
    -1333331.96503154723905026912689208984375,
    -1330796.9330781926400959491729736328125,
    -1329855.46935064531862735748291015625,
    -1329370.780219280160963535308837890625,
    -1328955.32855373970232903957366943359375,
    -1328487.22492118063382804393768310546875,
    -1327936.835152010433375835418701171875,
    -1327305.05534978932701051235198974609375,
    -1326601.6457099472172558307647705078125,
    -1325837.86230803257785737514495849609375,
    -1325024.14088827301748096942901611328125,
    -1324169.5263326405547559261322021484375,
# ... 15 like lines cut
]

# Réponse précédente siyy BETON_RAG
val_siyy_BRAG_prec = [
    -12800000.0000000037252902984619140625,
    -6228961.617498571984469890594482421875,
    -3239993.351106963120400905609130859375,
    -2041937.221474793739616870880126953125,
    -1588399.17469058255665004253387451171875,
    -1421841.5860967705957591533660888671875,
    -1361887.00888122455216944217681884765625,
    -1340688.578759275376796722412109375,
    -1333331.96503154723905026912689208984375,
    -1330796.9330781926400959491729736328125,
    -1329855.46935064531862735748291015625,
    -1329370.780219280160963535308837890625,
    -1328955.32855373970232903957366943359375,
    -1328487.22492118063382804393768310546875,
    -1327936.835152010433375835418701171875,
    -1327305.05534978932701051235198974609375,
    -1326601.6457099472172558307647705078125,
    -1325837.86230803257785737514495849609375,
    -1325024.14088827301748096942901611328125,
    -1324169.5263326405547559261322021484375,
# ... 15 like lines cut
]

# Réponse précédente epzz BETON_RAG
val_epzz_BRAG_prec = [
    -0.001000000000000000020816681711721685132943093776702880859375,
    -0.001000000000000000020816681711721685132943093776702880859375,
    -0.001000000000000000020816681711721685132943093776702880859375,
    -0.001000000000000000020816681711721685132943093776702880859375,
    -0.001000000000000000020816681711721685132943093776702880859375,
    -0.001000000000000000020816681711721685132943093776702880859375,
    -0.001000000000000000020816681711721685132943093776702880859375,
    -0.001000000000000000020816681711721685132943093776702880859375,
    -0.001000000000000000020816681711721685132943093776702880859375,
    -0.001000000000000000020816681711721685132943093776702880859375,
    -0.001000000000000000020816681711721685132943093776702880859375,
    -0.001000000000000000020816681711721685132943093776702880859375,
    -0.001000000000000000020816681711721685132943093776702880859375,
    -0.001000000000000000020816681711721685132943093776702880859375,
    -0.001000000000000000020816681711721685132943093776702880859375,
    -0.001000000000000000020816681711721685132943093776702880859375,
    -0.001000000000000000020816681711721685132943093776702880859375,
    -0.001000000000000000020816681711721685132943093776702880859375,
    -0.001000000000000000020816681711721685132943093776702880859375,
    -0.001000000000000000020816681711721685132943093776702880859375,
# ... 15 like lines cut
]

# Réponse précédente sizz BETON_BÜRGER
val_sizz_BBUR_prec = [
    -38400000.0,
    -18209544.94209916889667510986328125,
    -12040614.88769166730344295501708984375,
    -10008822.276785552501678466796875,
    -9284044.18317068554461002349853515625,
    -8995893.16906325519084930419921875,
    -8860723.5867912508547306060791015625,
    -8781697.0656311176717281341552734375,
    -8724531.50744956918060779571533203125,
    -8676726.614054434001445770263671875,
    -8633588.2971103824675083160400390625,
    -8593280.95118891634047031402587890625,
    -8555034.9668978340923786163330078125,
    -8518486.602782763540744781494140625,
    -8483431.78331907093524932861328125,
    -8449733.1394658274948596954345703125,
    -8417284.30996265448629856109619140625,
    -8385995.811140184290707111358642578125,
    -8355789.10951348207890987396240234375,
    -8326593.8640738427639007568359375,
# ... 15 like lines cut
]

# Réponse précédente sixx BETON_BÜRGER
val_sixx_BBUR_prec = [
    -12800000.00000000186264514923095703125,
    -6405873.39880475215613842010498046875,
    -3409712.080034277401864528656005859375,
    -2148543.6732527329586446285247802734375,
    -1644700.4371889824979007244110107421875,
    -1449178.4725035247392952442169189453125,
    -1374731.75615723244845867156982421875,
    -1346819.11242088489234447479248046875,
    -1336497.95735736354254186153411865234375,
    -1332697.765919034369289875030517578125,
    -1331231.5345003791153430938720703125,
    -1330535.7681347499601542949676513671875,
    -1330039.156830784864723682403564453125,
    -1329542.47680446482263505458831787109375,
    -1328984.14148596092127263545989990234375,
    -1328352.0683178906328976154327392578125,
    -1327650.8507544598542153835296630859375,
    -1326889.75106585747562348842620849609375,
    -1326078.48134908638894557952880859375,
    -1325225.8613540693186223506927490234375,
# ... 15 like lines cut
]

# Réponse précédente siyy BETON_BÜRGER
val_siyy_BBUR_prec = [
    -12800000.0000000037252902984619140625,
    -6405873.39880475215613842010498046875,
    -3409712.080034277401864528656005859375,
    -2148543.6732527329586446285247802734375,
    -1644700.4371889824979007244110107421875,
    -1449178.4725035247392952442169189453125,
    -1374731.75615723244845867156982421875,
    -1346819.11242088489234447479248046875,
    -1336497.95735736354254186153411865234375,
    -1332697.765919034369289875030517578125,
    -1331231.5345003791153430938720703125,
    -1330535.7681347499601542949676513671875,
    -1330039.156830784864723682403564453125,
    -1329542.47680446482263505458831787109375,
    -1328984.14148596092127263545989990234375,
    -1328352.0683178906328976154327392578125,
    -1327650.8507544598542153835296630859375,
    -1326889.75106585747562348842620849609375,
    -1326078.48134908638894557952880859375,
    -1325225.8613540693186223506927490234375,
# ... 15 like lines cut
]

# Réponse précédente epzz BETON_BÜRGER
val_epzz_BBUR_prec = [
    -0.001000000000000000020816681711721685132943093776702880859375,
    -0.001000000000000000020816681711721685132943093776702880859375,
    -0.001000000000000000020816681711721685132943093776702880859375,
    -0.001000000000000000020816681711721685132943093776702880859375,
    -0.001000000000000000020816681711721685132943093776702880859375,
    -0.001000000000000000020816681711721685132943093776702880859375,
    -0.001000000000000000020816681711721685132943093776702880859375,
    -0.001000000000000000020816681711721685132943093776702880859375,
    -0.001000000000000000020816681711721685132943093776702880859375,
    -0.001000000000000000020816681711721685132943093776702880859375,
    -0.001000000000000000020816681711721685132943093776702880859375,
    -0.001000000000000000020816681711721685132943093776702880859375,
    -0.001000000000000000020816681711721685132943093776702880859375,
    -0.001000000000000000020816681711721685132943093776702880859375,
    -0.001000000000000000020816681711721685132943093776702880859375,
    -0.001000000000000000020816681711721685132943093776702880859375,
    -0.001000000000000000020816681711721685132943093776702880859375,
    -0.001000000000000000020816681711721685132943093776702880859375,
    -0.001000000000000000020816681711721685132943093776702880859375,
    -0.001000000000000000020816681711721685132943093776702880859375,
# ... 15 like lines cut
]

VALS_SIZZ_BRAG = [
    _F(
        FONCTION=SIZZ_BRAG,
        NOM_PARA="INST",
        CRITERE="RELATIF",
        VALE_PARA=t[i] + Tmeca,
        VALE_CALC=val_sizz_BRAG_prec[i],
    )
    for i in range(len(t))
]

VALS_SIXX_BRAG = [
    _F(
        FONCTION=SIXX_BRAG,
        NOM_PARA="INST",
        CRITERE="RELATIF",
        VALE_PARA=t[i] + Tmeca,
        VALE_CALC=val_sixx_BRAG_prec[i],
    )
    for i in range(len(t))
]

VALS_SIYY_BRAG = [
    _F(
        FONCTION=SIYY_BRAG,
        NOM_PARA="INST",
        CRITERE="RELATIF",
        VALE_PARA=t[i] + Tmeca,
        VALE_CALC=val_siyy_BRAG_prec[i],
    )
    for i in range(len(t))
]

VALS_EPZZ_BRAG = [
    _F(
        FONCTION=EPZZ_BRAG,
        NOM_PARA="INST",
        CRITERE="RELATIF",
        REFERENCE="ANALYTIQUE",
        VALE_PARA=t[i] + Tmeca,
        VALE_CALC=val_epzz_BRAG_prec[i],
        VALE_REFE=dz,
    )
    for i in range(len(t))
]

VALS_SIZZ_BBUR = [
    _F(
        FONCTION=SIZZ_BBUR,
        NOM_PARA="INST",
        CRITERE="RELATIF",
        VALE_PARA=t[i] + Tmeca,
        VALE_CALC=val_sizz_BBUR_prec[i],
    )
    for i in range(len(t))
]

VALS_SIXX_BBUR = [
    _F(
        FONCTION=SIXX_BBUR,
        NOM_PARA="INST",
        CRITERE="RELATIF",
        VALE_PARA=t[i] + Tmeca,
        VALE_CALC=val_sixx_BBUR_prec[i],
    )
    for i in range(len(t))
]

VALS_SIYY_BBUR = [
    _F(
        FONCTION=SIYY_BBUR,
        NOM_PARA="INST",
        CRITERE="RELATIF",
        VALE_PARA=t[i] + Tmeca,
        VALE_CALC=val_siyy_BBUR_prec[i],
    )
    for i in range(len(t))
]

VALS_EPZZ_BBUR = [
    _F(
        FONCTION=EPZZ_BBUR,
        NOM_PARA="INST",
        CRITERE="RELATIF",
        REFERENCE="ANALYTIQUE",
        VALE_PARA=t[i] + Tmeca,
        VALE_CALC=val_epzz_BBUR_prec[i],
        VALE_REFE=dz,
    )
    for i in range(len(t))
]

VALS = (
    VALS_SIZZ_BRAG
    + VALS_SIXX_BRAG
    + VALS_SIYY_BRAG
    + VALS_EPZZ_BRAG
    + VALS_SIZZ_BBUR
    + VALS_SIXX_BBUR
    + VALS_SIYY_BBUR
    + VALS_EPZZ_BBUR
)

TEST_FONCTION(VALEUR=VALS)

FIN()
