# coding=utf-8
# --------------------------------------------------------------------
# Copyright (C) 1991 - 2026 - EDF - www.code-aster.org
# This file is part of code_aster.
#
# code_aster is free software: you can redistribute it and/or modify
# it under the terms of the GNU General Public License as published by
# the Free Software Foundation, either version 3 of the License, or
# (at your option) any later version.
#
# code_aster is distributed in the hope that it will be useful,
# but WITHOUT ANY WARRANTY; without even the implied warranty of
# MERCHANTABILITY or FITNESS FOR A PARTICULAR PURPOSE.  See the
# GNU General Public License for more details.
#
# You should have received a copy of the GNU General Public License
# along with code_aster.  If not, see <http://www.gnu.org/licenses/>.
# --------------------------------------------------------------------

#
#
# --------------------------------------------------------------------------------------------------
#
#                   LOI BETON_RAG
#
#   Vérification du comportement mécanique avec endommagement + puis fluage
#
# 2 : compression / Sigma 1d / Epsi  diagonal / Déplacement imposé
#
# --------------------------------------------------------------------------------------------------
DEBUT(CODE="OUI")
#
# !! !! !! !! !! !! !! !! !! !! !! !! !! !! !! !! !! !! !! !! !! !! !! !! !!
#
#   NE PAS UTILISER LES CARACTÉRISTIQUES MATÉRIAUX DE "BETON_RAG"
#   DE CE CAS TEST POUR FAIRE DES ÉTUDES.
#
#   ILS NE SONT PAS PHYSIQUES, ILS SERVENT À DE LA VÉRIFICATION MATHÉMATIQUE
#
# !! !! !! !! !! !! !! !! !! !! !! !! !! !! !! !! !! !! !! !! !! !! !! !! !!
#

# Solutions analytiques produites par Sympy
# Voir documentation pour le code permettant d'arriver à ces solutions
import numpy as np
from numpy import exp


def solu(t):
    return (
        -22324542.602775 * exp(-1.52047089478467 * t)
        - 2720860.25326215 * exp(-0.142803117813547 * t)
        - 6954597.14396111 * exp(-0.0122815429573395 * t)
    )


def solu_epxx(t):
    return (
        0.0002
        - 6.88429263647344e-5 * exp(-1.52047089478467 * t)
        + 1.46212902896181e-13 * exp(-0.5 * t)
        + 0.000385562834419928 * exp(-0.142803117813547 * t)
        + 5.20417042793042e-18 * exp(-0.1 * t)
        - 0.000266720527407549 * exp(-0.0122815429573395 * t)
    )


# Paramètres matériau
# /!\ Ne pas utiliser ces paramètres dans des études, ils ne sont pas physiques, et servent uniquement à de la vérification mathématique
E = 32000.0e06
nu = 0.25
k_r_sph = 8.0e09
eta_r_sph = 8.0e10
eta_i_sph = 1.0e12
k_r_dev = 1.2e10
eta_r_dev = 2.4e10
eta_i_dev = 5.0e11
kappa_i = 0.0

# Déplacement appliqué
dz = -1.0e-3

# Paramètres temporels
Tmeca = 1.0
NbPasMeca = 5
Tflua = 34.0
NbPasFlua = 340

# Paramètres de convergence
ResiGlob = 1.0e-09
ResiInteRela = 1.0e-07

# Début étude Aster
MAIL = LIRE_MAILLAGE(FORMAT="ASTER")

MOMECA = AFFE_MODELE(MAILLAGE=MAIL, AFFE=_F(TOUT="OUI", PHENOMENE="MECANIQUE", MODELISATION="3D"))

MATMECA = DEFI_MATERIAU(
    ELAS=_F(E=E, NU=nu),
    BETON_RAG=_F(
        COMP_BETON="ENDO",
        ENDO_MC=1.95,
        ENDO_MT=2.00,
        ENDO_SIGUC=-35.00e06,
        ENDO_SIGUT=-3.18e06,
        ENDO_DRUPRA=0.15,
    ),
)

MATFLUA_BRAG = DEFI_MATERIAU(
    ELAS=_F(E=E, NU=nu),
    BETON_RAG=_F(
        COMP_BETON="ENDO_FLUA",
        # unités : Pa
        ENDO_MC=1.95,
        ENDO_MT=2.00,
        ENDO_SIGUC=-35.00e06,
        ENDO_SIGUT=-3.18e06,
        ENDO_DRUPRA=0.15,
        # Unités : Pa Jour
        FLUA_SPH_KR=k_r_sph,
        FLUA_SPH_NR=eta_r_sph,
        FLUA_SPH_NI=eta_i_sph,
        FLUA_DEV_KR=k_r_dev,
        FLUA_DEV_NR=eta_r_dev,
        FLUA_DEV_NI=eta_i_dev,
    ),
)

FONC1 = DEFI_FONCTION(
    NOM_PARA="SECH", PROL_DROITE="LINEAIRE", PROL_GAUCHE="LINEAIRE", VALE=(0.0, 0.0, 1.0, 1.0)
)

MATFLUA_BBUR = DEFI_MATERIAU(
    ELAS_FO=_F(
        E=DEFI_CONSTANTE(VALE=E),
        NU=DEFI_CONSTANTE(VALE=nu),
        TEMP_DEF_ALPHA=0.0,
        ALPHA=DEFI_CONSTANTE(VALE=0.0),
    ),
    BETON_DESORP=_F(FONC_DESORP=FONC1),
    BETON_BURGER=_F(
        YoungModulus=E,
        PoissonRatio=nu,
        K_RS=k_r_sph,
        ETA_RS=eta_r_sph,
        ETA_IS=eta_i_sph,
        K_RD=k_r_dev,
        ETA_RD=eta_r_dev,
        ETA_ID=eta_i_dev,
        KAPPA=5e14,
        QSR_K=0.0,
        ETA_FD=0.0,
        TEMP_0_C=20.0,
    ),
)
TEMP = CREA_CHAMP(
    OPERATION="AFFE",
    TYPE_CHAM="NOEU_TEMP_R",
    MAILLAGE=MAIL,
    AFFE=_F(TOUT="OUI", NOM_CMP="TEMP", VALE=20.0),
)

SECH = CREA_CHAMP(
    OPERATION="AFFE",
    TYPE_CHAM="NOEU_TEMP_R",
    MAILLAGE=MAIL,
    AFFE=_F(TOUT="OUI", NOM_CMP="SECH", VALE=1.0),
)

CHMATM = AFFE_MATERIAU(MAILLAGE=MAIL, AFFE=_F(TOUT="OUI", MATER=MATMECA))

CHMATF_BRAG = AFFE_MATERIAU(MAILLAGE=MAIL, AFFE=_F(TOUT="OUI", MATER=MATFLUA_BRAG))
CHMATF_BBUR = AFFE_MATERIAU(
    MAILLAGE=MAIL,
    AFFE=_F(TOUT="OUI", MATER=MATFLUA_BBUR),
    AFFE_VARC=(
        _F(TOUT="OUI", CHAM_GD=SECH, NOM_VARC="SECH", VALE_REF=1),
        _F(TOUT="OUI", CHAM_GD=TEMP, NOM_VARC="TEMP", VALE_REF=20),
    ),
    MODELE=MOMECA,
)

CLMECA = AFFE_CHAR_MECA(
    MODELE=MOMECA,
    DDL_IMPO=(
        _F(GROUP_MA="BAS", DZ=0.0),
        _F(GROUP_MA="COTEG", DY=0.0),
        _F(GROUP_MA="ARRIERE", DX=0.0),
    ),
)

# Impose un déplacement
CHMECA = AFFE_CHAR_MECA(MODELE=MOMECA, DDL_IMPO=_F(GROUP_MA="HAUT", DZ=dz))
FCT = DEFI_FONCTION(NOM_PARA="INST", VALE=(0.0, 0.0, Tmeca, 1.0, 1000.0, 1.0))

L_INST = DEFI_LIST_REEL(
    DEBUT=0.0,
    INTERVALLE=(_F(JUSQU_A=Tmeca, NOMBRE=NbPasMeca), _F(JUSQU_A=Tmeca + Tflua, NOMBRE=NbPasFlua)),
)
L_INST_BBUR = DEFI_LIST_REEL(
    DEBUT=0.0,
    INTERVALLE=(
        _F(JUSQU_A=Tmeca, NOMBRE=NbPasMeca),
        _F(JUSQU_A=Tmeca + Tflua, NOMBRE=NbPasFlua * 4),
    ),
)

# La partie mécanique sans fluage pour stabilisation
RESU = STAT_NON_LINE(
    MODELE=MOMECA,
    CHAM_MATER=CHMATM,
    EXCIT=(_F(CHARGE=CLMECA), _F(CHARGE=CHMECA, FONC_MULT=FCT)),
    COMPORTEMENT=_F(RELATION="BETON_RAG"),
    INCREMENT=_F(LIST_INST=L_INST, INST_FIN=Tmeca),
    NEWTON=_F(MATRICE="TANGENTE", REAC_ITER=1),
    CONVERGENCE=_F(RESI_GLOB_RELA=ResiGlob, ITER_GLOB_MAXI=20),
)

# Préparation pour fluage Bürger (MFRONT)
CHSIG = CREA_CHAMP(
    TYPE_CHAM="ELGA_SIEF_R", OPERATION="EXTR", RESULTAT=RESU, NOM_CHAM="SIEF_ELGA", INST=Tmeca
)
CHDEP = CREA_CHAMP(
    TYPE_CHAM="NOEU_DEPL_R", OPERATION="EXTR", RESULTAT=RESU, NOM_CHAM="DEPL", INST=Tmeca
)
CHEPSI = CREA_CHAMP(
    TYPE_CHAM="ELGA_EPSI_R",
    OPERATION="EXTR",
    RESULTAT=CALC_CHAMP(RESULTAT=RESU, DEFORMATION=("EPSI_ELGA")),
    NOM_CHAM="EPSI_ELGA",
    INST=Tmeca,
)

CHVARI = CREA_CHAMP(
    OPERATION="ASSE",
    MODELE=MOMECA,
    TYPE_CHAM="ELGA_VARI_R",
    ASSE=_F(
        CHAM_GD=CHEPSI,
        TOUT="OUI",
        NOM_CMP=("EPXX", "EPYY", "EPZZ", "EPXY", "EPXZ", "EPYZ"),
        NOM_CMP_RESU=("V1", "V2", "V3", "V4", "V5", "V6"),
    ),
)
CHVARI2 = CREA_CHAMP(
    OPERATION="AFFE",
    MODELE=MOMECA,
    TYPE_CHAM="ELGA_VARI_R",
    PROL_ZERO="OUI",
    AFFE=(
        _F(
            TOUT="OUI",
            NOM_CMP=["V{}".format(i) for i in range(7, 35)],
            VALE=[0.0 for i in range(7, 35)],
        )
    ),
)
CHVARIF = CREA_CHAMP(
    OPERATION="ASSE",
    MODELE=MOMECA,
    TYPE_CHAM="ELGA_VARI_R",
    ASSE=(_F(TOUT="OUI", CHAM_GD=CHVARI2), _F(TOUT="OUI", CHAM_GD=CHVARI)),
)

# La partie fluage
RESUF_BRAG = STAT_NON_LINE(
    reuse=RESU,
    MODELE=MOMECA,
    CHAM_MATER=CHMATF_BRAG,
    ETAT_INIT=_F(EVOL_NOLI=RESU, INST=Tmeca),
    EXCIT=(_F(CHARGE=CLMECA), _F(CHARGE=CHMECA, FONC_MULT=FCT)),
    COMPORTEMENT=_F(RELATION="BETON_RAG", RESI_INTE=ResiInteRela),
    INCREMENT=_F(LIST_INST=L_INST, INST_FIN=Tmeca + Tflua),
    NEWTON=_F(MATRICE="TANGENTE", REAC_ITER=1),
    CONVERGENCE=_F(RESI_GLOB_RELA=ResiGlob, ITER_GLOB_MAXI=20),
)

# Calcul pour vérification avec modèle MFRONT
RESUF_BBUR = STAT_NON_LINE(
    MODELE=MOMECA,
    CHAM_MATER=CHMATF_BBUR,
    EXCIT=(_F(CHARGE=CLMECA), _F(CHARGE=CHMECA, FONC_MULT=FCT)),
    COMPORTEMENT=_F(RELATION="BETON_BURGER", RESI_INTE=1.0e-14, TOUT="OUI"),
    ETAT_INIT=_F(SIGM=CHSIG, DEPL=CHDEP, VARI=CHVARIF),
    INCREMENT=_F(LIST_INST=L_INST_BBUR, INST_INIT=Tmeca, INST_FIN=Tmeca + Tflua),
    NEWTON=_F(MATRICE="TANGENTE", REAC_ITER=1),
    CONVERGENCE=_F(RESI_GLOB_RELA=ResiGlob, ITER_GLOB_MAXI=20),
)

# Calcul des déformations
RESUF_BRAG = CALC_CHAMP(reuse=RESUF_BRAG, RESULTAT=RESUF_BRAG, DEFORMATION=("EPSI_ELGA"))
RESUF_BBUR = CALC_CHAMP(reuse=RESUF_BBUR, RESULTAT=RESUF_BBUR, DEFORMATION=("EPSI_ELGA"))

# Calcul des fonctions donnant contraintes et déformations
SIXX_BRAG = RECU_FONCTION(
    RESULTAT=RESUF_BRAG,
    NOM_CHAM="SIEF_ELGA",
    NOM_CMP="SIXX",
    GROUP_MA="G3D",
    POINT=8,
    NOM_RESU="SIXX",
)
SIYY_BRAG = RECU_FONCTION(
    RESULTAT=RESUF_BRAG,
    NOM_CHAM="SIEF_ELGA",
    NOM_CMP="SIYY",
    GROUP_MA="G3D",
    POINT=8,
    NOM_RESU="SIYY",
)
SIZZ_BRAG = RECU_FONCTION(
    RESULTAT=RESUF_BRAG,
    NOM_CHAM="SIEF_ELGA",
    NOM_CMP="SIZZ",
    GROUP_MA="G3D",
    POINT=8,
    NOM_RESU="SIZZ",
)
EPXX_BRAG = RECU_FONCTION(
    RESULTAT=RESUF_BRAG,
    NOM_CHAM="EPSI_ELGA",
    NOM_CMP="EPXX",
    GROUP_MA="G3D",
    POINT=8,
    NOM_RESU="EPXX",
)
EPYY_BRAG = RECU_FONCTION(
    RESULTAT=RESUF_BRAG,
    NOM_CHAM="EPSI_ELGA",
    NOM_CMP="EPYY",
    GROUP_MA="G3D",
    POINT=8,
    NOM_RESU="EPYY",
)
EPZZ_BRAG = RECU_FONCTION(
    RESULTAT=RESUF_BRAG,
    NOM_CHAM="EPSI_ELGA",
    NOM_CMP="EPZZ",
    GROUP_MA="G3D",
    POINT=8,
    NOM_RESU="EPZZ",
)

SIXX_BBUR = RECU_FONCTION(
    RESULTAT=RESUF_BBUR,
    NOM_CHAM="SIEF_ELGA",
    NOM_CMP="SIXX",
    GROUP_MA="G3D",
    POINT=8,
    NOM_RESU="SIXX",
)
SIYY_BBUR = RECU_FONCTION(
    RESULTAT=RESUF_BBUR,
    NOM_CHAM="SIEF_ELGA",
    NOM_CMP="SIYY",
    GROUP_MA="G3D",
    POINT=8,
    NOM_RESU="SIYY",
)
SIZZ_BBUR = RECU_FONCTION(
    RESULTAT=RESUF_BBUR,
    NOM_CHAM="SIEF_ELGA",
    NOM_CMP="SIZZ",
    GROUP_MA="G3D",
    POINT=8,
    NOM_RESU="SIZZ",
)
EPXX_BBUR = RECU_FONCTION(
    RESULTAT=RESUF_BBUR,
    NOM_CHAM="EPSI_ELGA",
    NOM_CMP="EPXX",
    GROUP_MA="G3D",
    POINT=8,
    NOM_RESU="EPXX",
)
EPYY_BBUR = RECU_FONCTION(
    RESULTAT=RESUF_BBUR,
    NOM_CHAM="EPSI_ELGA",
    NOM_CMP="EPYY",
    GROUP_MA="G3D",
    POINT=8,
    NOM_RESU="EPYY",
)
EPZZ_BBUR = RECU_FONCTION(
    RESULTAT=RESUF_BBUR,
    NOM_CHAM="EPSI_ELGA",
    NOM_CMP="EPZZ",
    GROUP_MA="G3D",
    POINT=8,
    NOM_RESU="EPZZ",
)

# Temps pour la vérification
t = np.linspace(0, 34, 35)

# Réponse précédente sizz BETON_RAG
val_sizz_BRAG_prec = [
    -32000000.0,
    -14108810.3479311577975749969482421875,
    -9897421.4608433507382869720458984375,
    -8708772.59923200309276580810546875,
    -8208822.079344040714204311370849609375,
    -7883683.300488437525928020477294921875,
    -7617876.570695745758712291717529296875,
    -7383438.70299530029296875,
    -7171899.976085799746215343475341796875,
    -6979364.80752989090979099273681640625,
    -6803208.48987970687448978424072265625,
    -6641318.99317134357988834381103515625,
    -6491899.96820624731481075286865234375,
    -6353400.6124426238238811492919921875,
    -6224476.839728645980358123779296875,
    -6103962.4568537287414073944091796875,
    -5990845.211574905551970005035400390625,
    -5884246.260407212190330028533935546875,
    -5783402.418616908602416515350341796875,
    -5687650.782897896133363246917724609375,
# ... 15 like lines cut
]

# Réponse précédente epxx BETON_RAG
val_epxx_BRAG_prec = [
    0.00025000000000000000520417042793042128323577344417572021484375,
    0.000255688819456955317675761474305318188271485269069671630859375,
    0.00022618231726434620716681411778381516342051327228546142578125,
    0.000193375694171856740092435567035522581136319786310195922851562,
    0.00016365354371896301440003629323882705648429691791534423828125,
    0.000137901601086113506904745618086849390238057821989059448242188,
    0.000115871343370575654706938761862033970828633755445480346679688,
    9.71251529374095518617332478683579211065080016851425170898438e-05,
    8.12351164103478366653593445434466957522090524435043334960938e-05,
    6.78196939568864981106449674186364973138552159070968627929688e-05,
    5.65458471852931719671062071874700905027566477656364440917969e-05,
    4.71243991022024494947847972348142775445012375712394714355469e-05,
    3.93045939588684663181135381382347304679569788277149200439453e-05,
    3.2869070187355208835511266585172052145935595035552978515625e-05,
    2.76294360535695029479699713625961976504186168313026428222656e-05,
    2.3422417848806150836261583125796903459558961912989616394043e-05,
    2.01065179741614130149753025822434437941410578787326812744141e-05,
    1.7559116915961286466141277884389637620188295841217041015625e-05,
    1.56739606950536913246470327454318294257973320782184600830078e-05,
    1.43589826184573761110128270468422329031454864889383316040039e-05,
# ... 15 like lines cut
]

# Réponse précédente epyy BETON_RAG
val_epyy_BRAG_prec = [
    0.000250000000000000059414279052205642983608413487672805786132812,
    0.000255688819456955317675761474305318188271485269069671630859375,
    0.000226182317264346234271868429921426013606833294034004211425781,
    0.000193375694171856740092435567035522581136319786310195922851562,
    0.000163653543718963095715199229651659607043256983160972595214844,
    0.000137901601086113615324962866637292790983337908983230590820312,
    0.000115871343370575654706938761862033970828633755445480346679688,
    9.71251529374095654142604039371633461996680125594139099121094e-05,
    8.12351164103478231128321884746412706590490415692329406738281e-05,
    6.78196939568864845581178113498310722206952050328254699707031e-05,
    5.65458471852931584145790511186646654095966368913650512695312e-05,
    4.712439910220240883720332902839800226502120494842529296875e-05,
    3.93045939588684730943771161726374430145369842648506164550781e-05,
    3.28690701873552156117748446195747646925156004726886749267578e-05,
    2.76294360535695097242335493969989101969986222684383392333984e-05,
    2.34224178488061745531841062462063973725889809429645538330078e-05,
    2.01065179741614333437660366854515814338810741901397705078125e-05,
    1.75591169159612796898776998499869250736082904040813446044922e-05,
    1.56739606950537150415695558658413233388273511081933975219727e-05,
    1.43589826184573727228810380296408766298554837703704833984375e-05,
# ... 15 like lines cut
]

# Réponse précédente epzz BETON_RAG
val_epzz_BRAG_prec = [
    -0.001000000000000000020816681711721685132943093776702880859375,
    -0.001000000000000000020816681711721685132943093776702880859375,
    -0.001000000000000000020816681711721685132943093776702880859375,
    -0.001000000000000000020816681711721685132943093776702880859375,
    -0.001000000000000000020816681711721685132943093776702880859375,
    -0.001000000000000000020816681711721685132943093776702880859375,
    -0.001000000000000000020816681711721685132943093776702880859375,
    -0.001000000000000000020816681711721685132943093776702880859375,
    -0.001000000000000000020816681711721685132943093776702880859375,
    -0.001000000000000000020816681711721685132943093776702880859375,
    -0.001000000000000000020816681711721685132943093776702880859375,
    -0.001000000000000000020816681711721685132943093776702880859375,
    -0.001000000000000000020816681711721685132943093776702880859375,
    -0.001000000000000000020816681711721685132943093776702880859375,
    -0.001000000000000000020816681711721685132943093776702880859375,
    -0.001000000000000000020816681711721685132943093776702880859375,
    -0.001000000000000000020816681711721685132943093776702880859375,
    -0.001000000000000000020816681711721685132943093776702880859375,
    -0.001000000000000000020816681711721685132943093776702880859375,
    -0.001000000000000000020816681711721685132943093776702880859375,
# ... 15 like lines cut
]

# Réponse précédente sizz BETON_BÜRGER
val_sizz_BBUR_prec = [
    -32000000.0,
    -14248957.9916956909000873565673828125,
    -9960559.708869315683841705322265625,
    -8730983.70605842582881450653076171875,
    -8216737.22676403261721134185791015625,
    -7887303.526603090576827526092529296875,
    -7620300.706031366251409053802490234375,
    -7385528.851319273002445697784423828125,
    -7173871.035671760328114032745361328125,
    -6981258.958375127054750919342041015625,
    -6805026.5882655866444110870361328125,
    -6643054.785602591000497341156005859375,
    -6493548.2099808417260646820068359375,
    -6354958.488534606993198394775390625,
    -6225943.81474831886589527130126953125,
    -6105339.8110895715653896331787109375,
    -5992135.58836401440203189849853515625,
    -5885453.283636868000030517578125,
    -5784530.383481617085635662078857421875,
    -5688704.410549930296838283538818359375,
# ... 15 like lines cut
]

# Réponse précédente epxx BETON_BÜRGER
val_epxx_BBUR_prec = [
    0.00025000000000000000520417042793042128323577344417572021484375,
    0.000255393891572959204436937818982755743490997701883316040039062,
    0.000226189852850633849870240488222350450087105855345726013183594,
    0.000193546851441068183284285875167540780239505693316459655761719,
    0.0001638909031326948005646837458471054560504853725433349609375,
    0.000138163760227057424555957565459607394586782902479171752929688,
    0.000116140888431270252324593872383928783165174536406993865966797,
    9.73935117140942960582347676101733213727129623293876647949219e-05,
    8.14972289397396254268662874054029998660553246736526489257812e-05,
    6.80722398756260167794820969966451684740604832768440246582031e-05,
    5.67865950742183641882822320301471563652739860117435455322266e-05,
    4.73519013030067778785396626073378456567297689616680145263672e-05,
    3.95179981879001626416010595210792644138564355671405792236328e-05,
    3.30679824711751618173879996298580863367533311247825622558594e-05,
    2.78138124633621205506004564478317320208589080721139907836914e-05,
    2.35924782893162407839716954160991235767141915857791900634766e-05,
    2.026267685445600451321634949408689863048493862152099609375e-05,
    1.77019276458632130680920235832331854908261448144912719726562e-05,
    1.58040715137745704614580244395938279922120273113250732421875e-05,
    1.44771017128390489425888987273793873100657947361469268798828e-05,
# ... 15 like lines cut
]

# Réponse précédente epyy BETON_BÜRGER
val_epyy_BBUR_prec = [
    0.000250000000000000059414279052205642983608413487672805786132812,
    0.000255393891572959258647046443257977443863637745380401611328125,
    0.000226189852850633795660131863947128749714465811848640441894531,
    0.000193546851441068101969122938754708229680545628070831298828125,
    0.000163890903132694637934357873021440354932565242052078247070312,
    0.000138163760227057153505414444083498892723582684993743896484375,
    0.000116140888431269981274050751007820281301974318921566009521484,
    9.7393511714094038560218802302870244602672755718231201171875e-05,
    8.1497228939739381481377478166905348189175128936767578125e-05,
    6.80722398756257457289389756205366666108602657914161682128906e-05,
    5.67865950742181066902662667228440795952337794005870819091797e-05,
    4.73519013030065203805236973000347688866895623505115509033203e-05,
    3.95179981878999254723758283169843252835562452673912048339844e-05,
    3.30679824711749043193720343225550095667131245136260986328125e-05,
    2.78138124633618562763209131061259427042386960238218307495117e-05,
    2.35924782893159765096921520743933342600939795374870300292969e-05,
    2.02626768544557368508050171351797530405747238546609878540039e-05,
    1.77019276458629149124945900695138334413059055805206298828125e-05,
    1.58040715137742689177288019086731196694017853587865829467773e-05,
    1.44771017128387558691891487394620696704805595800280570983887e-05,
# ... 15 like lines cut
]

# Réponse précédente epzz BETON_BÜRGER
val_epzz_BBUR_prec = [
    -0.001000000000000000020816681711721685132943093776702880859375,
    -0.001000000000000000020816681711721685132943093776702880859375,
    -0.001000000000000000020816681711721685132943093776702880859375,
    -0.001000000000000000020816681711721685132943093776702880859375,
    -0.001000000000000000020816681711721685132943093776702880859375,
    -0.001000000000000000020816681711721685132943093776702880859375,
    -0.001000000000000000020816681711721685132943093776702880859375,
    -0.001000000000000000020816681711721685132943093776702880859375,
    -0.001000000000000000020816681711721685132943093776702880859375,
    -0.001000000000000000020816681711721685132943093776702880859375,
    -0.001000000000000000020816681711721685132943093776702880859375,
    -0.001000000000000000020816681711721685132943093776702880859375,
    -0.001000000000000000020816681711721685132943093776702880859375,
    -0.001000000000000000020816681711721685132943093776702880859375,
    -0.001000000000000000020816681711721685132943093776702880859375,
    -0.001000000000000000020816681711721685132943093776702880859375,
    -0.001000000000000000020816681711721685132943093776702880859375,
    -0.001000000000000000020816681711721685132943093776702880859375,
    -0.001000000000000000020816681711721685132943093776702880859375,
    -0.001000000000000000020816681711721685132943093776702880859375,
# ... 15 like lines cut
]

# Solutions analytiques
val_sizz_ANALY = solu(t)
val_epxx_ANALY = solu_epxx(t)

VALS_SIZZ_BRAG = [
    _F(
        FONCTION=SIZZ_BRAG,
        NOM_PARA="INST",
        CRITERE="RELATIF",
        REFERENCE="ANALYTIQUE",
        VALE_PARA=t[i] + Tmeca,
        VALE_CALC=val_sizz_BRAG_prec[i],
        VALE_REFE=val_sizz_ANALY[i],
    )
    for i in range(len(t))
]

VALS_EPXX_BRAG = [
    _F(
        FONCTION=EPXX_BRAG,
        NOM_PARA="INST",
        CRITERE="RELATIF",
        REFERENCE="ANALYTIQUE",
        VALE_PARA=t[i] + Tmeca,
        VALE_CALC=val_epxx_BRAG_prec[i],
        VALE_REFE=val_epxx_ANALY[i],
    )
    for i in range(len(t))
]

VALS_EPYY_BRAG = [
    _F(
        FONCTION=EPYY_BRAG,
        NOM_PARA="INST",
        CRITERE="RELATIF",
        REFERENCE="ANALYTIQUE",
        VALE_PARA=t[i] + Tmeca,
        VALE_CALC=val_epyy_BRAG_prec[i],
        VALE_REFE=val_epxx_ANALY[i],
    )
    for i in range(len(t))
]

VALS_EPZZ_BRAG = [
    _F(
        FONCTION=EPZZ_BRAG,
        NOM_PARA="INST",
        CRITERE="RELATIF",
        REFERENCE="ANALYTIQUE",
        VALE_PARA=t[i] + Tmeca,
        VALE_CALC=val_epzz_BRAG_prec[i],
        VALE_REFE=dz,
    )
    for i in range(len(t))
]

# Note : il est nécessaire de mettre une précision plus laxiste pour faire passer Beton_Burger sans diviser le pas de temps
VALS_SIZZ_BBUR = [
    _F(
        FONCTION=SIZZ_BBUR,
        NOM_PARA="INST",
        CRITERE="RELATIF",
        REFERENCE="ANALYTIQUE",
        VALE_PARA=t[i] + Tmeca,
        VALE_CALC=val_sizz_BBUR_prec[i],
        VALE_REFE=val_sizz_ANALY[i],
        PRECISION=1.0e-2,
    )
    for i in range(len(t))
]

VALS_EPXX_BBUR = [
    _F(
        FONCTION=EPXX_BBUR,
        NOM_PARA="INST",
        CRITERE="RELATIF",
        REFERENCE="ANALYTIQUE",
        VALE_PARA=t[i] + Tmeca,
        VALE_CALC=val_epxx_BBUR_prec[i],
        VALE_REFE=val_epxx_ANALY[i],
        PRECISION=1.0e-2,
    )
    for i in range(len(t))
]

VALS_EPYY_BBUR = [
    _F(
        FONCTION=EPYY_BBUR,
        NOM_PARA="INST",
        CRITERE="RELATIF",
        REFERENCE="ANALYTIQUE",
        VALE_PARA=t[i] + Tmeca,
        VALE_CALC=val_epyy_BBUR_prec[i],
        VALE_REFE=val_epxx_ANALY[i],
        PRECISION=1.0e-2,
    )
    for i in range(len(t))
]

VALS_EPZZ_BBUR = [
    _F(
        FONCTION=EPZZ_BBUR,
        NOM_PARA="INST",
        CRITERE="RELATIF",
        REFERENCE="ANALYTIQUE",
        VALE_PARA=t[i] + Tmeca,
        VALE_CALC=val_epzz_BBUR_prec[i],
        VALE_REFE=dz,
    )
    for i in range(len(t))
]


VALS = (
    VALS_SIZZ_BRAG
    + VALS_EPXX_BRAG
    + VALS_EPYY_BRAG
    + VALS_EPZZ_BRAG
    + VALS_SIZZ_BBUR
    + VALS_EPXX_BBUR
    + VALS_EPYY_BBUR
    + VALS_EPZZ_BBUR
)

TEST_FONCTION(VALEUR=VALS)

FIN()
